
---------- Begin Simulation Statistics ----------
final_tick                                52480575500                       # Number of ticks from beginning of simulation (restored from checkpoints and never reset)
host_mem_usage                               67473528                       # Number of bytes of host memory used
host_seconds                                  1764.12                       # Real time elapsed on the host
host_tick_rate                               29748833                       # Simulator tick rate (ticks/s)
sim_freq                                 1000000000000                       # Frequency of simulated ticks
sim_seconds                                  0.052481                       # Number of seconds simulated
sim_ticks                                 52480575500                       # Number of ticks simulated
system.cpu.cc_regfile_reads                 176186609                       # number of cc regfile reads
system.cpu.cc_regfile_writes                171456407                       # number of cc regfile writes
system.cpu.committedInsts::0                 99999993                       # Number of Instructions Simulated
system.cpu.committedInsts::1                100000000                       # Number of Instructions Simulated
system.cpu.committedInsts::total            199999993                       # Number of Instructions Simulated
system.cpu.committedOps::0                  155229006                       # Number of Ops (including micro ops) Simulated
system.cpu.committedOps::1                  155229019                       # Number of Ops (including micro ops) Simulated
system.cpu.committedOps::total              310458025                       # Number of Ops (including micro ops) Simulated
system.cpu.cpi::0                            1.049612                       # CPI: Cycles Per Instruction
system.cpu.cpi::1                            1.049612                       # CPI: Cycles Per Instruction
system.cpu.cpi_total                         0.524806                       # CPI: Total CPI of All Threads
system.cpu.fp_regfile_reads                  14881732                       # number of floating regfile reads
system.cpu.fp_regfile_writes                 11428933                       # number of floating regfile writes
system.cpu.idleCycles                           93062                       # Total number of cycles that the CPU has spent unscheduled due to idling
system.cpu.iew.branchMispredicts              1375408                       # Number of branch mispredicts detected at execute
system.cpu.iew.exec_branches::0              12212917                       # Number of branches executed
system.cpu.iew.exec_branches::1              12209392                       # Number of branches executed
system.cpu.iew.exec_branches::total          24422309                       # Number of branches executed
system.cpu.iew.exec_nop::0                          0                       # number of nop insts executed
system.cpu.iew.exec_nop::1                          0                       # number of nop insts executed
system.cpu.iew.exec_nop::total                      0                       # number of nop insts executed
system.cpu.iew.exec_rate                     3.265503                       # Inst execution rate
system.cpu.iew.exec_refs::0                  44877052                       # number of memory reference insts executed
system.cpu.iew.exec_refs::1                  44866481                       # number of memory reference insts executed
system.cpu.iew.exec_refs::total              89743533                       # number of memory reference insts executed
system.cpu.iew.exec_stores::0                13754502                       # Number of stores executed
system.cpu.iew.exec_stores::1                13752707                       # Number of stores executed
system.cpu.iew.exec_stores::total            27507209                       # Number of stores executed
system.cpu.iew.exec_swp::0                          0                       # number of swp insts executed
system.cpu.iew.exec_swp::1                          0                       # number of swp insts executed
system.cpu.iew.exec_swp::total                      0                       # number of swp insts executed
system.cpu.iew.iewBlockCycles                 9013205                       # Number of cycles IEW is blocking
system.cpu.iew.iewDispLoadInsts              67724385                       # Number of dispatched load instructions
system.cpu.iew.iewDispNonSpecInsts               1832                       # Number of dispatched non-speculative instructions
system.cpu.iew.iewDispSquashedInsts                 0                       # Number of squashed instructions skipped by dispatch
system.cpu.iew.iewDispStoreInsts             28304435                       # Number of dispatched store instructions
system.cpu.iew.iewDispatchedInsts           364594635                       # Number of instructions dispatched to IQ
system.cpu.iew.iewExecLoadInsts::0           31122550                       # Number of load instructions executed
system.cpu.iew.iewExecLoadInsts::1           31113774                       # Number of load instructions executed
system.cpu.iew.iewExecLoadInsts::total       62236324                       # Number of load instructions executed
system.cpu.iew.iewExecSquashedInsts           2964737                       # Number of squashed instructions skipped in execute
system.cpu.iew.iewExecutedInsts             342750917                       # Number of executed instructions
system.cpu.iew.iewIQFullEvents                1432482                       # Number of times the IQ has become full, causing a stall
system.cpu.iew.iewIdleCycles                        0                       # Number of cycles IEW is idle
system.cpu.iew.iewLSQFullEvents               1229885                       # Number of times the LSQ has become full, causing a stall
system.cpu.iew.iewSquashCycles                1260788                       # Number of cycles IEW is squashing
system.cpu.iew.iewUnblockCycles               3730734                       # Number of cycles IEW is unblocking
system.cpu.iew.memOrderViolationEvents           3649                       # Number of memory order violations
system.cpu.iew.predictedNotTakenIncorrect       649059                       # Number of branches that were predicted not taken incorrectly
system.cpu.iew.predictedTakenIncorrect         726349                       # Number of branches that were predicted taken incorrectly
system.cpu.iew.wb_consumers::0              228719308                       # num instructions consuming a value
system.cpu.iew.wb_consumers::1              228724301                       # num instructions consuming a value
system.cpu.iew.wb_consumers::total          457443609                       # num instructions consuming a value
system.cpu.iew.wb_count::0                  171242187                       # cumulative count of insts written-back
system.cpu.iew.wb_count::1                  171180693                       # cumulative count of insts written-back
system.cpu.iew.wb_count::total              342422880                       # cumulative count of insts written-back
system.cpu.iew.wb_fanout::0                  0.566768                       # average fanout of values written-back
system.cpu.iew.wb_fanout::1                  0.566640                       # average fanout of values written-back
system.cpu.iew.wb_fanout::total              0.566704                       # average fanout of values written-back
system.cpu.iew.wb_producers::0              129630709                       # num instructions producing a value
system.cpu.iew.wb_producers::1              129604259                       # num instructions producing a value
system.cpu.iew.wb_producers::total          259234968                       # num instructions producing a value
system.cpu.iew.wb_rate::0                    1.631482                       # insts written-back per cycle
system.cpu.iew.wb_rate::1                    1.630896                       # insts written-back per cycle
system.cpu.iew.wb_rate::total                3.262377                       # insts written-back per cycle
system.cpu.iew.wb_sent::0                   171305483                       # cumulative count of insts sent to commit
system.cpu.iew.wb_sent::1                   171245107                       # cumulative count of insts sent to commit
system.cpu.iew.wb_sent::total               342550590                       # cumulative count of insts sent to commit
system.cpu.int_regfile_reads                584510597                       # number of integer regfile reads
system.cpu.int_regfile_writes               274973065                       # number of integer regfile writes
system.cpu.ipc::0                            0.952733                       # IPC: Instructions Per Cycle
system.cpu.ipc::1                            0.952733                       # IPC: Instructions Per Cycle
system.cpu.ipc_total                         1.905467                       # IPC: Total IPC of All Threads
system.cpu.iq.FU_type_0::No_OpClass           2235305      1.29%      1.29% # Type of FU issued
system.cpu.iq.FU_type_0::IntAlu             119667311     68.95%     70.24% # Type of FU issued
system.cpu.iq.FU_type_0::IntMult                   64      0.00%     70.24% # Type of FU issued
system.cpu.iq.FU_type_0::IntDiv                 41708      0.02%     70.26% # Type of FU issued
system.cpu.iq.FU_type_0::FloatAdd             1680974      0.97%     71.23% # Type of FU issued
system.cpu.iq.FU_type_0::FloatCmp                   0      0.00%     71.23% # Type of FU issued
system.cpu.iq.FU_type_0::FloatCvt                1460      0.00%     71.23% # Type of FU issued
system.cpu.iq.FU_type_0::FloatMult                  0      0.00%     71.23% # Type of FU issued
system.cpu.iq.FU_type_0::FloatMultAcc               0      0.00%     71.23% # Type of FU issued
system.cpu.iq.FU_type_0::FloatDiv                   0      0.00%     71.23% # Type of FU issued
system.cpu.iq.FU_type_0::FloatMisc                  0      0.00%     71.23% # Type of FU issued
system.cpu.iq.FU_type_0::FloatSqrt                  0      0.00%     71.23% # Type of FU issued
system.cpu.iq.FU_type_0::SimdAdd                 8621      0.00%     71.23% # Type of FU issued
system.cpu.iq.FU_type_0::SimdAddAcc                 0      0.00%     71.23% # Type of FU issued
system.cpu.iq.FU_type_0::SimdAlu               103508      0.06%     71.29% # Type of FU issued
system.cpu.iq.FU_type_0::SimdCmp                    6      0.00%     71.29% # Type of FU issued
system.cpu.iq.FU_type_0::SimdCvt                18798      0.01%     71.30% # Type of FU issued
system.cpu.iq.FU_type_0::SimdMisc             3356579      1.93%     73.24% # Type of FU issued
system.cpu.iq.FU_type_0::SimdMult                   0      0.00%     73.24% # Type of FU issued
system.cpu.iq.FU_type_0::SimdMultAcc                0      0.00%     73.24% # Type of FU issued
system.cpu.iq.FU_type_0::SimdShift               2578      0.00%     73.24% # Type of FU issued
system.cpu.iq.FU_type_0::SimdShiftAcc               0      0.00%     73.24% # Type of FU issued
system.cpu.iq.FU_type_0::SimdDiv                    0      0.00%     73.24% # Type of FU issued
system.cpu.iq.FU_type_0::SimdSqrt                   0      0.00%     73.24% # Type of FU issued
system.cpu.iq.FU_type_0::SimdFloatAdd               0      0.00%     73.24% # Type of FU issued
system.cpu.iq.FU_type_0::SimdFloatAlu               0      0.00%     73.24% # Type of FU issued
system.cpu.iq.FU_type_0::SimdFloatCmp               0      0.00%     73.24% # Type of FU issued
system.cpu.iq.FU_type_0::SimdFloatCvt           41897      0.02%     73.26% # Type of FU issued
system.cpu.iq.FU_type_0::SimdFloatDiv               0      0.00%     73.26% # Type of FU issued
system.cpu.iq.FU_type_0::SimdFloatMisc              0      0.00%     73.26% # Type of FU issued
system.cpu.iq.FU_type_0::SimdFloatMult          21722      0.01%     73.28% # Type of FU issued
system.cpu.iq.FU_type_0::SimdFloatMultAcc            0      0.00%     73.28% # Type of FU issued
system.cpu.iq.FU_type_0::SimdFloatSqrt              0      0.00%     73.28% # Type of FU issued
system.cpu.iq.FU_type_0::SimdReduceAdd              0      0.00%     73.28% # Type of FU issued
system.cpu.iq.FU_type_0::SimdReduceAlu              0      0.00%     73.28% # Type of FU issued
system.cpu.iq.FU_type_0::SimdReduceCmp              0      0.00%     73.28% # Type of FU issued
system.cpu.iq.FU_type_0::SimdFloatReduceAdd            0      0.00%     73.28% # Type of FU issued
system.cpu.iq.FU_type_0::SimdFloatReduceCmp            0      0.00%     73.28% # Type of FU issued
system.cpu.iq.FU_type_0::SimdAes                    0      0.00%     73.28% # Type of FU issued
system.cpu.iq.FU_type_0::SimdAesMix                 0      0.00%     73.28% # Type of FU issued
system.cpu.iq.FU_type_0::SimdSha1Hash               0      0.00%     73.28% # Type of FU issued
system.cpu.iq.FU_type_0::SimdSha1Hash2              0      0.00%     73.28% # Type of FU issued
system.cpu.iq.FU_type_0::SimdSha256Hash             0      0.00%     73.28% # Type of FU issued
system.cpu.iq.FU_type_0::SimdSha256Hash2            0      0.00%     73.28% # Type of FU issued
system.cpu.iq.FU_type_0::SimdShaSigma2              0      0.00%     73.28% # Type of FU issued
system.cpu.iq.FU_type_0::SimdShaSigma3              0      0.00%     73.28% # Type of FU issued
system.cpu.iq.FU_type_0::SimdPredAlu                0      0.00%     73.28% # Type of FU issued
system.cpu.iq.FU_type_0::MemRead             32322815     18.62%     91.90% # Type of FU issued
system.cpu.iq.FU_type_0::MemWrite            12802830      7.38%     99.28% # Type of FU issued
system.cpu.iq.FU_type_0::FloatMemRead          106949      0.06%     99.34% # Type of FU issued
system.cpu.iq.FU_type_0::FloatMemWrite        1148940      0.66%    100.00% # Type of FU issued
system.cpu.iq.FU_type_0::IprAccess                  0      0.00%    100.00% # Type of FU issued
system.cpu.iq.FU_type_0::InstPrefetch               0      0.00%    100.00% # Type of FU issued
system.cpu.iq.FU_type_0::total              173562065                       # Type of FU issued
system.cpu.iq.FU_type_1::No_OpClass           2235151      1.29%      1.29% # Type of FU issued
system.cpu.iq.FU_type_1::IntAlu             119617221     68.94%     70.23% # Type of FU issued
system.cpu.iq.FU_type_1::IntMult                   65      0.00%     70.23% # Type of FU issued
system.cpu.iq.FU_type_1::IntDiv                 41616      0.02%     70.25% # Type of FU issued
system.cpu.iq.FU_type_1::FloatAdd             1680855      0.97%     71.22% # Type of FU issued
system.cpu.iq.FU_type_1::FloatCmp                   0      0.00%     71.22% # Type of FU issued
system.cpu.iq.FU_type_1::FloatCvt                1473      0.00%     71.22% # Type of FU issued
system.cpu.iq.FU_type_1::FloatMult                  0      0.00%     71.22% # Type of FU issued
system.cpu.iq.FU_type_1::FloatMultAcc               0      0.00%     71.22% # Type of FU issued
system.cpu.iq.FU_type_1::FloatDiv                   0      0.00%     71.22% # Type of FU issued
system.cpu.iq.FU_type_1::FloatMisc                  0      0.00%     71.22% # Type of FU issued
system.cpu.iq.FU_type_1::FloatSqrt                  0      0.00%     71.22% # Type of FU issued
system.cpu.iq.FU_type_1::SimdAdd                 8598      0.00%     71.23% # Type of FU issued
system.cpu.iq.FU_type_1::SimdAddAcc                 0      0.00%     71.23% # Type of FU issued
system.cpu.iq.FU_type_1::SimdAlu               103131      0.06%     71.28% # Type of FU issued
system.cpu.iq.FU_type_1::SimdCmp                    6      0.00%     71.29% # Type of FU issued
system.cpu.iq.FU_type_1::SimdCvt                18588      0.01%     71.30% # Type of FU issued
system.cpu.iq.FU_type_1::SimdMisc             3356512      1.93%     73.23% # Type of FU issued
system.cpu.iq.FU_type_1::SimdMult                   0      0.00%     73.23% # Type of FU issued
system.cpu.iq.FU_type_1::SimdMultAcc                0      0.00%     73.23% # Type of FU issued
system.cpu.iq.FU_type_1::SimdShift               2537      0.00%     73.23% # Type of FU issued
system.cpu.iq.FU_type_1::SimdShiftAcc               0      0.00%     73.23% # Type of FU issued
system.cpu.iq.FU_type_1::SimdDiv                    0      0.00%     73.23% # Type of FU issued
system.cpu.iq.FU_type_1::SimdSqrt                   0      0.00%     73.23% # Type of FU issued
system.cpu.iq.FU_type_1::SimdFloatAdd               0      0.00%     73.23% # Type of FU issued
system.cpu.iq.FU_type_1::SimdFloatAlu               0      0.00%     73.23% # Type of FU issued
system.cpu.iq.FU_type_1::SimdFloatCmp               0      0.00%     73.23% # Type of FU issued
system.cpu.iq.FU_type_1::SimdFloatCvt           41839      0.02%     73.26% # Type of FU issued
system.cpu.iq.FU_type_1::SimdFloatDiv               0      0.00%     73.26% # Type of FU issued
system.cpu.iq.FU_type_1::SimdFloatMisc              0      0.00%     73.26% # Type of FU issued
system.cpu.iq.FU_type_1::SimdFloatMult          21730      0.01%     73.27% # Type of FU issued
system.cpu.iq.FU_type_1::SimdFloatMultAcc            0      0.00%     73.27% # Type of FU issued
system.cpu.iq.FU_type_1::SimdFloatSqrt              0      0.00%     73.27% # Type of FU issued
system.cpu.iq.FU_type_1::SimdReduceAdd              0      0.00%     73.27% # Type of FU issued
system.cpu.iq.FU_type_1::SimdReduceAlu              0      0.00%     73.27% # Type of FU issued
system.cpu.iq.FU_type_1::SimdReduceCmp              0      0.00%     73.27% # Type of FU issued
system.cpu.iq.FU_type_1::SimdFloatReduceAdd            0      0.00%     73.27% # Type of FU issued
system.cpu.iq.FU_type_1::SimdFloatReduceCmp            0      0.00%     73.27% # Type of FU issued
system.cpu.iq.FU_type_1::SimdAes                    0      0.00%     73.27% # Type of FU issued
system.cpu.iq.FU_type_1::SimdAesMix                 0      0.00%     73.27% # Type of FU issued
system.cpu.iq.FU_type_1::SimdSha1Hash               0      0.00%     73.27% # Type of FU issued
system.cpu.iq.FU_type_1::SimdSha1Hash2              0      0.00%     73.27% # Type of FU issued
system.cpu.iq.FU_type_1::SimdSha256Hash             0      0.00%     73.27% # Type of FU issued
system.cpu.iq.FU_type_1::SimdSha256Hash2            0      0.00%     73.27% # Type of FU issued
system.cpu.iq.FU_type_1::SimdShaSigma2              0      0.00%     73.27% # Type of FU issued
system.cpu.iq.FU_type_1::SimdShaSigma3              0      0.00%     73.27% # Type of FU issued
system.cpu.iq.FU_type_1::SimdPredAlu                0      0.00%     73.27% # Type of FU issued
system.cpu.iq.FU_type_1::MemRead             32313704     18.62%     91.89% # Type of FU issued
system.cpu.iq.FU_type_1::MemWrite            12801402      7.38%     99.27% # Type of FU issued
system.cpu.iq.FU_type_1::FloatMemRead          115563      0.07%     99.34% # Type of FU issued
system.cpu.iq.FU_type_1::FloatMemWrite        1152128      0.66%    100.00% # Type of FU issued
system.cpu.iq.FU_type_1::IprAccess                  0      0.00%    100.00% # Type of FU issued
system.cpu.iq.FU_type_1::InstPrefetch               0      0.00%    100.00% # Type of FU issued
system.cpu.iq.FU_type_1::total              173512119                       # Type of FU issued
system.cpu.iq.FU_type::total                347074184      0.00%      0.00% # Type of FU issued
system.cpu.iq.fp_alu_accesses                17582074                       # Number of floating point alu accesses
system.cpu.iq.fp_inst_queue_reads            31431623                       # Number of floating instruction queue reads
system.cpu.iq.fp_inst_queue_wakeup_accesses     13700879                       # Number of floating instruction queue wakeup accesses
system.cpu.iq.fp_inst_queue_writes           14619972                       # Number of floating instruction queue writes
system.cpu.iq.fu_busy_cnt::0                 62123240                       # FU busy when requested
system.cpu.iq.fu_busy_cnt::1                 62106586                       # FU busy when requested
system.cpu.iq.fu_busy_cnt::total            124229826                       # FU busy when requested
system.cpu.iq.fu_busy_rate::0                0.178991                       # FU busy rate (busy events/executed inst)
system.cpu.iq.fu_busy_rate::1                0.178943                       # FU busy rate (busy events/executed inst)
system.cpu.iq.fu_busy_rate::total            0.357935                       # FU busy rate (busy events/executed inst)
system.cpu.iq.fu_full::No_OpClass                   0      0.00%      0.00% # attempts to use FU when none available
system.cpu.iq.fu_full::IntAlu                26750909     21.53%     21.53% # attempts to use FU when none available
system.cpu.iq.fu_full::IntMult                     47      0.00%     21.53% # attempts to use FU when none available
system.cpu.iq.fu_full::IntDiv                  136786      0.11%     21.64% # attempts to use FU when none available
system.cpu.iq.fu_full::FloatAdd                803993      0.65%     22.29% # attempts to use FU when none available
system.cpu.iq.fu_full::FloatCmp                     0      0.00%     22.29% # attempts to use FU when none available
system.cpu.iq.fu_full::FloatCvt                   722      0.00%     22.29% # attempts to use FU when none available
system.cpu.iq.fu_full::FloatMult                    0      0.00%     22.29% # attempts to use FU when none available
system.cpu.iq.fu_full::FloatMultAcc                 0      0.00%     22.29% # attempts to use FU when none available
system.cpu.iq.fu_full::FloatDiv                     0      0.00%     22.29% # attempts to use FU when none available
system.cpu.iq.fu_full::FloatMisc                    0      0.00%     22.29% # attempts to use FU when none available
system.cpu.iq.fu_full::FloatSqrt                    0      0.00%     22.29% # attempts to use FU when none available
system.cpu.iq.fu_full::SimdAdd                   3486      0.00%     22.29% # attempts to use FU when none available
system.cpu.iq.fu_full::SimdAddAcc                   0      0.00%     22.29% # attempts to use FU when none available
system.cpu.iq.fu_full::SimdAlu                   7959      0.01%     22.30% # attempts to use FU when none available
system.cpu.iq.fu_full::SimdCmp                      0      0.00%     22.30% # attempts to use FU when none available
system.cpu.iq.fu_full::SimdCvt                   6754      0.01%     22.31% # attempts to use FU when none available
system.cpu.iq.fu_full::SimdMisc               1057188      0.85%     23.16% # attempts to use FU when none available
system.cpu.iq.fu_full::SimdMult                     0      0.00%     23.16% # attempts to use FU when none available
system.cpu.iq.fu_full::SimdMultAcc                  0      0.00%     23.16% # attempts to use FU when none available
system.cpu.iq.fu_full::SimdShift                 1438      0.00%     23.16% # attempts to use FU when none available
system.cpu.iq.fu_full::SimdShiftAcc                 0      0.00%     23.16% # attempts to use FU when none available
system.cpu.iq.fu_full::SimdDiv                      0      0.00%     23.16% # attempts to use FU when none available
system.cpu.iq.fu_full::SimdSqrt                     0      0.00%     23.16% # attempts to use FU when none available
system.cpu.iq.fu_full::SimdFloatAdd                 0      0.00%     23.16% # attempts to use FU when none available
system.cpu.iq.fu_full::SimdFloatAlu                 0      0.00%     23.16% # attempts to use FU when none available
system.cpu.iq.fu_full::SimdFloatCmp                 0      0.00%     23.16% # attempts to use FU when none available
system.cpu.iq.fu_full::SimdFloatCvt                46      0.00%     23.16% # attempts to use FU when none available
system.cpu.iq.fu_full::SimdFloatDiv                 0      0.00%     23.16% # attempts to use FU when none available
system.cpu.iq.fu_full::SimdFloatMisc                0      0.00%     23.16% # attempts to use FU when none available
system.cpu.iq.fu_full::SimdFloatMult                9      0.00%     23.16% # attempts to use FU when none available
system.cpu.iq.fu_full::SimdFloatMultAcc             0      0.00%     23.16% # attempts to use FU when none available
system.cpu.iq.fu_full::SimdFloatSqrt                0      0.00%     23.16% # attempts to use FU when none available
system.cpu.iq.fu_full::SimdReduceAdd                0      0.00%     23.16% # attempts to use FU when none available
system.cpu.iq.fu_full::SimdReduceAlu                0      0.00%     23.16% # attempts to use FU when none available
system.cpu.iq.fu_full::SimdReduceCmp                0      0.00%     23.16% # attempts to use FU when none available
system.cpu.iq.fu_full::SimdFloatReduceAdd            0      0.00%     23.16% # attempts to use FU when none available
system.cpu.iq.fu_full::SimdFloatReduceCmp            0      0.00%     23.16% # attempts to use FU when none available
system.cpu.iq.fu_full::SimdAes                      0      0.00%     23.16% # attempts to use FU when none available
system.cpu.iq.fu_full::SimdAesMix                   0      0.00%     23.16% # attempts to use FU when none available
system.cpu.iq.fu_full::SimdSha1Hash                 0      0.00%     23.16% # attempts to use FU when none available
system.cpu.iq.fu_full::SimdSha1Hash2                0      0.00%     23.16% # attempts to use FU when none available
system.cpu.iq.fu_full::SimdSha256Hash               0      0.00%     23.16% # attempts to use FU when none available
system.cpu.iq.fu_full::SimdSha256Hash2              0      0.00%     23.16% # attempts to use FU when none available
system.cpu.iq.fu_full::SimdShaSigma2                0      0.00%     23.16% # attempts to use FU when none available
system.cpu.iq.fu_full::SimdShaSigma3                0      0.00%     23.16% # attempts to use FU when none available
system.cpu.iq.fu_full::SimdPredAlu                  0      0.00%     23.16% # attempts to use FU when none available
system.cpu.iq.fu_full::MemRead               78692677     63.34%     86.50% # attempts to use FU when none available
system.cpu.iq.fu_full::MemWrite              16767812     13.50%    100.00% # attempts to use FU when none available
system.cpu.iq.fu_full::FloatMemRead                 0      0.00%    100.00% # attempts to use FU when none available
system.cpu.iq.fu_full::FloatMemWrite                0      0.00%    100.00% # attempts to use FU when none available
system.cpu.iq.fu_full::IprAccess                    0      0.00%    100.00% # attempts to use FU when none available
system.cpu.iq.fu_full::InstPrefetch                 0      0.00%    100.00% # attempts to use FU when none available
system.cpu.iq.int_alu_accesses              573283951                       # Number of integer alu accesses
system.cpu.iq.int_inst_queue_reads         1017103901                       # Number of integer instruction queue reads
system.cpu.iq.int_inst_queue_wakeup_accesses    328722001                       # Number of integer instruction queue wakeup accesses
system.cpu.iq.int_inst_queue_writes         404114816                       # Number of integer instruction queue writes
system.cpu.iq.iqInstsAdded                  364591975                       # Number of instructions added to the IQ (excludes non-spec)
system.cpu.iq.iqInstsIssued                 347074184                       # Number of instructions issued
system.cpu.iq.iqNonSpecInstsAdded                2660                       # Number of non-speculative instructions added to the IQ
system.cpu.iq.iqSquashedInstsExamined        54136511                       # Number of squashed instructions iterated over during squash; mainly for profiling
system.cpu.iq.iqSquashedInstsIssued           1256773                       # Number of squashed instructions issued
system.cpu.iq.iqSquashedNonSpecRemoved            254                       # Number of squashed non-spec instructions that were removed
system.cpu.iq.iqSquashedOperandsExamined     83646599                       # Number of squashed operands that are examined and possibly removed from graph
system.cpu.iq.issued_per_cycle::samples     104868090                       # Number of insts issued each cycle
system.cpu.iq.issued_per_cycle::mean         3.309626                       # Number of insts issued each cycle
system.cpu.iq.issued_per_cycle::stdev        1.805001                       # Number of insts issued each cycle
system.cpu.iq.issued_per_cycle::underflows            0      0.00%      0.00% # Number of insts issued each cycle
system.cpu.iq.issued_per_cycle::0            12383597     11.81%     11.81% # Number of insts issued each cycle
system.cpu.iq.issued_per_cycle::1             4832510      4.61%     16.42% # Number of insts issued each cycle
system.cpu.iq.issued_per_cycle::2            15880223     15.14%     31.56% # Number of insts issued each cycle
system.cpu.iq.issued_per_cycle::3            19374558     18.48%     50.04% # Number of insts issued each cycle
system.cpu.iq.issued_per_cycle::4            20008295     19.08%     69.11% # Number of insts issued each cycle
system.cpu.iq.issued_per_cycle::5            23631402     22.53%     91.65% # Number of insts issued each cycle
system.cpu.iq.issued_per_cycle::6             7308275      6.97%     98.62% # Number of insts issued each cycle
system.cpu.iq.issued_per_cycle::7             1276126      1.22%     99.83% # Number of insts issued each cycle
system.cpu.iq.issued_per_cycle::8              173104      0.17%    100.00% # Number of insts issued each cycle
system.cpu.iq.issued_per_cycle::overflows            0      0.00%    100.00% # Number of insts issued each cycle
system.cpu.iq.issued_per_cycle::min_value            0                       # Number of insts issued each cycle
system.cpu.iq.issued_per_cycle::max_value            8                       # Number of insts issued each cycle
system.cpu.iq.issued_per_cycle::total       104868090                       # Number of insts issued each cycle
system.cpu.iq.rate                           3.306692                       # Inst issue rate
system.cpu.iq.vec_alu_accesses                      0                       # Number of vector alu accesses
system.cpu.iq.vec_inst_queue_reads                  0                       # Number of vector instruction queue reads
system.cpu.iq.vec_inst_queue_wakeup_accesses            0                       # Number of vector instruction queue wakeup accesses
system.cpu.iq.vec_inst_queue_writes                 0                       # Number of vector instruction queue writes
system.cpu.memDep0.conflictingLoads           2492294                       # Number of conflicting loads.
system.cpu.memDep0.conflictingStores           649079                       # Number of conflicting stores.
system.cpu.memDep0.insertedLoads             33875897                       # Number of loads inserted to the mem dependence unit.
system.cpu.memDep0.insertedStores            14153693                       # Number of stores inserted to the mem dependence unit.
system.cpu.memDep1.conflictingLoads           2520750                       # Number of conflicting loads.
system.cpu.memDep1.conflictingStores           631234                       # Number of conflicting stores.
system.cpu.memDep1.insertedLoads             33848488                       # Number of loads inserted to the mem dependence unit.
system.cpu.memDep1.insertedStores            14150742                       # Number of stores inserted to the mem dependence unit.
system.cpu.misc_regfile_reads               141199914                       # number of misc regfile reads
system.cpu.misc_regfile_writes                   1404                       # number of misc regfile writes
system.cpu.numCycles                        104961152                       # number of cpu cycles simulated
system.cpu.numWorkItemsCompleted                    0                       # number of work items this cpu completed
system.cpu.numWorkItemsStarted                      0                       # number of work items this cpu started
system.cpu.timesIdled                            1753                       # Number of times that the entire CPU went into an idle state and unscheduled itself
system.cpu.workload0.numSyscalls                   85                       # Number of system calls
system.cpu.workload1.numSyscalls                   85                       # Number of system calls
system.membus.snoop_filter.hit_multi_requests            0                       # Number of requests hitting in the snoop filter with multiple (>1) holders of the requested data.
system.membus.snoop_filter.hit_multi_snoops            0                       # Number of snoops hitting in the snoop filter with multiple (>1) holders of the requested data.
system.membus.snoop_filter.hit_single_requests        29330                       # Number of requests hitting in the snoop filter with a single holder of the requested data.
system.membus.snoop_filter.hit_single_snoops            0                       # Number of snoops hitting in the snoop filter with a single holder of the requested data.
system.membus.snoop_filter.tot_requests        124353                       # Total number of requests made to the snoop filter.
system.membus.snoop_filter.tot_snoops               0                       # Total number of snoops made to the snoop filter.
system.tol2bus.snoop_filter.hit_multi_requests           33                       # Number of requests hitting in the snoop filter with multiple (>1) holders of the requested data.
system.tol2bus.snoop_filter.hit_multi_snoops            0                       # Number of snoops hitting in the snoop filter with multiple (>1) holders of the requested data.
system.tol2bus.snoop_filter.hit_single_requests       865010                       # Number of requests hitting in the snoop filter with a single holder of the requested data.
system.tol2bus.snoop_filter.hit_single_snoops          220                       # Number of snoops hitting in the snoop filter with a single holder of the requested data.
system.tol2bus.snoop_filter.tot_requests      1730722                       # Total number of requests made to the snoop filter.
system.tol2bus.snoop_filter.tot_snoops            220                       # Total number of snoops made to the snoop filter.
sim_insts                                   199999993                       # Number of instructions simulated
sim_ops                                     310458025                       # Number of ops (including micro ops) simulated
host_inst_rate                                 113371                       # Simulator instruction rate (inst/s)
host_op_rate                                   175984                       # Simulator op (including micro ops) rate (op/s)
system.clk_domain.clock                          1000                       # Clock period in ticks
system.cpu.branchPred.lookups                33650908                       # Number of BP lookups
system.cpu.branchPred.condPredicted          22819305                       # Number of conditional branches predicted
system.cpu.branchPred.condIncorrect           1266499                       # Number of conditional branches incorrect
system.cpu.branchPred.BTBLookups             17325786                       # Number of BTB lookups
system.cpu.branchPred.BTBHits                17257316                       # Number of BTB hits
system.cpu.branchPred.BTBHitPct             99.604809                       # BTB Hit Percentage
system.cpu.branchPred.RASUsed                 4872437                       # Number of times the RAS was used to get a target.
system.cpu.branchPred.RASIncorrect                103                       # Number of incorrect RAS predictions.
system.cpu.branchPred.indirectLookups           37084                       # Number of indirect predictor lookups.
system.cpu.branchPred.indirectHits              22723                       # Number of indirect target hits.
system.cpu.branchPred.indirectMisses            14361                       # Number of indirect misses.
system.cpu.branchPred.indirectMispredicted         2957                       # Number of mispredicted indirect branches.
system.cpu.branchPred.power_state.pwrStateResidencyTicks::UNDEFINED  52480575500                       # Cumulative time (in ticks) in various power states
system.cpu.commit.commitSquashedInsts        51729229                       # The number of squashed insts skipped by commit
system.cpu.commit.commitNonSpecStalls            2406                       # The number of times commit has been forced to stall to communicate backwards
system.cpu.commit.branchMispredicts           1255360                       # The number of times a branch was mispredicted
system.cpu.commit.numCommittedDist::samples    104285446                       # Number of insts commited each cycle
system.cpu.commit.numCommittedDist::mean     2.977002                       # Number of insts commited each cycle
system.cpu.commit.numCommittedDist::stdev     2.747011                       # Number of insts commited each cycle
system.cpu.commit.numCommittedDist::underflows            0      0.00%      0.00% # Number of insts commited each cycle
system.cpu.commit.numCommittedDist::0        25197331     24.16%     24.16% # Number of insts commited each cycle
system.cpu.commit.numCommittedDist::1        14778596     14.17%     38.33% # Number of insts commited each cycle
system.cpu.commit.numCommittedDist::2        15058816     14.44%     52.77% # Number of insts commited each cycle
system.cpu.commit.numCommittedDist::3        13399077     12.85%     65.62% # Number of insts commited each cycle
system.cpu.commit.numCommittedDist::4         8702365      8.34%     73.97% # Number of insts commited each cycle
system.cpu.commit.numCommittedDist::5         4909275      4.71%     78.67% # Number of insts commited each cycle
system.cpu.commit.numCommittedDist::6         4456196      4.27%     82.95% # Number of insts commited each cycle
system.cpu.commit.numCommittedDist::7         2998765      2.88%     85.82% # Number of insts commited each cycle
system.cpu.commit.numCommittedDist::8        14785025     14.18%    100.00% # Number of insts commited each cycle
system.cpu.commit.numCommittedDist::overflows            0      0.00%    100.00% # Number of insts commited each cycle
system.cpu.commit.numCommittedDist::min_value            0                       # Number of insts commited each cycle
system.cpu.commit.numCommittedDist::max_value            8                       # Number of insts commited each cycle
system.cpu.commit.numCommittedDist::total    104285446                       # Number of insts commited each cycle
system.cpu.commit.instsCommitted::0          99999993                       # Number of instructions committed
system.cpu.commit.instsCommitted::1         100000000                       # Number of instructions committed
system.cpu.commit.instsCommitted::total     199999993                       # Number of instructions committed
system.cpu.commit.opsCommitted::0           155229006                       # Number of ops (including micro ops) committed
system.cpu.commit.opsCommitted::1           155229019                       # Number of ops (including micro ops) committed
system.cpu.commit.opsCommitted::total       310458025                       # Number of ops (including micro ops) committed
system.cpu.commit.memRefs::0                 42788453                       # Number of memory references committed
system.cpu.commit.memRefs::1                 42788460                       # Number of memory references committed
system.cpu.commit.memRefs::total             85576913                       # Number of memory references committed
system.cpu.commit.loads::0                   29449876                       # Number of loads committed
system.cpu.commit.loads::1                   29449883                       # Number of loads committed
system.cpu.commit.loads::total               58899759                       # Number of loads committed
system.cpu.commit.amos::0                           0                       # Number of atomic instructions committed
system.cpu.commit.amos::1                           0                       # Number of atomic instructions committed
system.cpu.commit.amos::total                       0                       # Number of atomic instructions committed
system.cpu.commit.membars::0                      334                       # Number of memory barriers committed
system.cpu.commit.membars::1                      334                       # Number of memory barriers committed
system.cpu.commit.membars::total                  668                       # Number of memory barriers committed
system.cpu.commit.branches::0                10778507                       # Number of branches committed
system.cpu.commit.branches::1                10778507                       # Number of branches committed
system.cpu.commit.branches::total            21557014                       # Number of branches committed
system.cpu.commit.vector::0                         0                       # Number of committed Vector instructions.
system.cpu.commit.vector::1                         0                       # Number of committed Vector instructions.
system.cpu.commit.vector::total                     0                       # Number of committed Vector instructions.
system.cpu.commit.floating::0                 6695840                       # Number of committed floating point instructions.
system.cpu.commit.floating::1                 6695840                       # Number of committed floating point instructions.
system.cpu.commit.floating::total            13391680                       # Number of committed floating point instructions.
system.cpu.commit.integer::0                149456633                       # Number of committed integer instructions.
system.cpu.commit.integer::1                149456646                       # Number of committed integer instructions.
system.cpu.commit.integer::total            298913279                       # Number of committed integer instructions.
system.cpu.commit.functionCalls::0            1895992                       # Number of function calls committed.
system.cpu.commit.functionCalls::1            1895992                       # Number of function calls committed.
system.cpu.commit.functionCalls::total        3791984                       # Number of function calls committed.
system.cpu.commit.committedInstType_0::No_OpClass      1916505      1.23%      1.23% # Class of committed instruction
system.cpu.commit.committedInstType_0::IntAlu    105360616     67.87%     69.11% # Class of committed instruction
system.cpu.commit.committedInstType_0::IntMult           38      0.00%     69.11% # Class of committed instruction
system.cpu.commit.committedInstType_0::IntDiv        40525      0.03%     69.14% # Class of committed instruction
system.cpu.commit.committedInstType_0::FloatAdd      1674215      1.08%     70.21% # Class of committed instruction
system.cpu.commit.committedInstType_0::FloatCmp            0      0.00%     70.21% # Class of committed instruction
system.cpu.commit.committedInstType_0::FloatCvt         1248      0.00%     70.21% # Class of committed instruction
system.cpu.commit.committedInstType_0::FloatMult            0      0.00%     70.21% # Class of committed instruction
system.cpu.commit.committedInstType_0::FloatMultAcc            0      0.00%     70.21% # Class of committed instruction
system.cpu.commit.committedInstType_0::FloatDiv            0      0.00%     70.21% # Class of committed instruction
system.cpu.commit.committedInstType_0::FloatMisc            0      0.00%     70.21% # Class of committed instruction
system.cpu.commit.committedInstType_0::FloatSqrt            0      0.00%     70.21% # Class of committed instruction
system.cpu.commit.committedInstType_0::SimdAdd         7936      0.01%     70.22% # Class of committed instruction
system.cpu.commit.committedInstType_0::SimdAddAcc            0      0.00%     70.22% # Class of committed instruction
system.cpu.commit.committedInstType_0::SimdAlu        35477      0.02%     70.24% # Class of committed instruction
system.cpu.commit.committedInstType_0::SimdCmp            6      0.00%     70.24% # Class of committed instruction
system.cpu.commit.committedInstType_0::SimdCvt        16318      0.01%     70.25% # Class of committed instruction
system.cpu.commit.committedInstType_0::SimdMisc      3354093      2.16%     72.41% # Class of committed instruction
system.cpu.commit.committedInstType_0::SimdMult            0      0.00%     72.41% # Class of committed instruction
system.cpu.commit.committedInstType_0::SimdMultAcc            0      0.00%     72.41% # Class of committed instruction
system.cpu.commit.committedInstType_0::SimdShift         2037      0.00%     72.41% # Class of committed instruction
system.cpu.commit.committedInstType_0::SimdShiftAcc            0      0.00%     72.41% # Class of committed instruction
system.cpu.commit.committedInstType_0::SimdDiv            0      0.00%     72.41% # Class of committed instruction
system.cpu.commit.committedInstType_0::SimdSqrt            0      0.00%     72.41% # Class of committed instruction
system.cpu.commit.committedInstType_0::SimdFloatAdd            0      0.00%     72.41% # Class of committed instruction
system.cpu.commit.committedInstType_0::SimdFloatAlu            0      0.00%     72.41% # Class of committed instruction
system.cpu.commit.committedInstType_0::SimdFloatCmp            0      0.00%     72.41% # Class of committed instruction
system.cpu.commit.committedInstType_0::SimdFloatCvt        21026      0.01%     72.43% # Class of committed instruction
system.cpu.commit.committedInstType_0::SimdFloatDiv            0      0.00%     72.43% # Class of committed instruction
system.cpu.commit.committedInstType_0::SimdFloatMisc            0      0.00%     72.43% # Class of committed instruction
system.cpu.commit.committedInstType_0::SimdFloatMult        10513      0.01%     72.44% # Class of committed instruction
system.cpu.commit.committedInstType_0::SimdFloatMultAcc            0      0.00%     72.44% # Class of committed instruction
system.cpu.commit.committedInstType_0::SimdFloatSqrt            0      0.00%     72.44% # Class of committed instruction
system.cpu.commit.committedInstType_0::SimdReduceAdd            0      0.00%     72.44% # Class of committed instruction
system.cpu.commit.committedInstType_0::SimdReduceAlu            0      0.00%     72.44% # Class of committed instruction
system.cpu.commit.committedInstType_0::SimdReduceCmp            0      0.00%     72.44% # Class of committed instruction
system.cpu.commit.committedInstType_0::SimdFloatReduceAdd            0      0.00%     72.44% # Class of committed instruction
system.cpu.commit.committedInstType_0::SimdFloatReduceCmp            0      0.00%     72.44% # Class of committed instruction
system.cpu.commit.committedInstType_0::SimdAes            0      0.00%     72.44% # Class of committed instruction
system.cpu.commit.committedInstType_0::SimdAesMix            0      0.00%     72.44% # Class of committed instruction
system.cpu.commit.committedInstType_0::SimdSha1Hash            0      0.00%     72.44% # Class of committed instruction
system.cpu.commit.committedInstType_0::SimdSha1Hash2            0      0.00%     72.44% # Class of committed instruction
system.cpu.commit.committedInstType_0::SimdSha256Hash            0      0.00%     72.44% # Class of committed instruction
system.cpu.commit.committedInstType_0::SimdSha256Hash2            0      0.00%     72.44% # Class of committed instruction
system.cpu.commit.committedInstType_0::SimdShaSigma2            0      0.00%     72.44% # Class of committed instruction
system.cpu.commit.committedInstType_0::SimdShaSigma3            0      0.00%     72.44% # Class of committed instruction
system.cpu.commit.committedInstType_0::SimdPredAlu            0      0.00%     72.44% # Class of committed instruction
system.cpu.commit.committedInstType_0::MemRead     29407281     18.94%     91.38% # Class of committed instruction
system.cpu.commit.committedInstType_0::MemWrite     12227999      7.88%     99.26% # Class of committed instruction
system.cpu.commit.committedInstType_0::FloatMemRead        42595      0.03%     99.28% # Class of committed instruction
system.cpu.commit.committedInstType_0::FloatMemWrite      1110578      0.72%    100.00% # Class of committed instruction
system.cpu.commit.committedInstType_0::IprAccess            0      0.00%    100.00% # Class of committed instruction
system.cpu.commit.committedInstType_0::InstPrefetch            0      0.00%    100.00% # Class of committed instruction
system.cpu.commit.committedInstType_0::total    155229006                       # Class of committed instruction
system.cpu.commit.committedInstType_1::No_OpClass      1916505      1.23%      1.23% # Class of committed instruction
system.cpu.commit.committedInstType_1::IntAlu    105360622     67.87%     69.11% # Class of committed instruction
system.cpu.commit.committedInstType_1::IntMult           38      0.00%     69.11% # Class of committed instruction
system.cpu.commit.committedInstType_1::IntDiv        40525      0.03%     69.14% # Class of committed instruction
system.cpu.commit.committedInstType_1::FloatAdd      1674215      1.08%     70.21% # Class of committed instruction
system.cpu.commit.committedInstType_1::FloatCmp            0      0.00%     70.21% # Class of committed instruction
system.cpu.commit.committedInstType_1::FloatCvt         1248      0.00%     70.21% # Class of committed instruction
system.cpu.commit.committedInstType_1::FloatMult            0      0.00%     70.21% # Class of committed instruction
system.cpu.commit.committedInstType_1::FloatMultAcc            0      0.00%     70.21% # Class of committed instruction
system.cpu.commit.committedInstType_1::FloatDiv            0      0.00%     70.21% # Class of committed instruction
system.cpu.commit.committedInstType_1::FloatMisc            0      0.00%     70.21% # Class of committed instruction
system.cpu.commit.committedInstType_1::FloatSqrt            0      0.00%     70.21% # Class of committed instruction
system.cpu.commit.committedInstType_1::SimdAdd         7936      0.01%     70.22% # Class of committed instruction
system.cpu.commit.committedInstType_1::SimdAddAcc            0      0.00%     70.22% # Class of committed instruction
system.cpu.commit.committedInstType_1::SimdAlu        35477      0.02%     70.24% # Class of committed instruction
system.cpu.commit.committedInstType_1::SimdCmp            6      0.00%     70.24% # Class of committed instruction
system.cpu.commit.committedInstType_1::SimdCvt        16318      0.01%     70.25% # Class of committed instruction
system.cpu.commit.committedInstType_1::SimdMisc      3354093      2.16%     72.41% # Class of committed instruction
system.cpu.commit.committedInstType_1::SimdMult            0      0.00%     72.41% # Class of committed instruction
system.cpu.commit.committedInstType_1::SimdMultAcc            0      0.00%     72.41% # Class of committed instruction
system.cpu.commit.committedInstType_1::SimdShift         2037      0.00%     72.41% # Class of committed instruction
system.cpu.commit.committedInstType_1::SimdShiftAcc            0      0.00%     72.41% # Class of committed instruction
system.cpu.commit.committedInstType_1::SimdDiv            0      0.00%     72.41% # Class of committed instruction
system.cpu.commit.committedInstType_1::SimdSqrt            0      0.00%     72.41% # Class of committed instruction
system.cpu.commit.committedInstType_1::SimdFloatAdd            0      0.00%     72.41% # Class of committed instruction
system.cpu.commit.committedInstType_1::SimdFloatAlu            0      0.00%     72.41% # Class of committed instruction
system.cpu.commit.committedInstType_1::SimdFloatCmp            0      0.00%     72.41% # Class of committed instruction
system.cpu.commit.committedInstType_1::SimdFloatCvt        21026      0.01%     72.43% # Class of committed instruction
system.cpu.commit.committedInstType_1::SimdFloatDiv            0      0.00%     72.43% # Class of committed instruction
system.cpu.commit.committedInstType_1::SimdFloatMisc            0      0.00%     72.43% # Class of committed instruction
system.cpu.commit.committedInstType_1::SimdFloatMult        10513      0.01%     72.44% # Class of committed instruction
system.cpu.commit.committedInstType_1::SimdFloatMultAcc            0      0.00%     72.44% # Class of committed instruction
system.cpu.commit.committedInstType_1::SimdFloatSqrt            0      0.00%     72.44% # Class of committed instruction
system.cpu.commit.committedInstType_1::SimdReduceAdd            0      0.00%     72.44% # Class of committed instruction
system.cpu.commit.committedInstType_1::SimdReduceAlu            0      0.00%     72.44% # Class of committed instruction
system.cpu.commit.committedInstType_1::SimdReduceCmp            0      0.00%     72.44% # Class of committed instruction
system.cpu.commit.committedInstType_1::SimdFloatReduceAdd            0      0.00%     72.44% # Class of committed instruction
system.cpu.commit.committedInstType_1::SimdFloatReduceCmp            0      0.00%     72.44% # Class of committed instruction
system.cpu.commit.committedInstType_1::SimdAes            0      0.00%     72.44% # Class of committed instruction
system.cpu.commit.committedInstType_1::SimdAesMix            0      0.00%     72.44% # Class of committed instruction
system.cpu.commit.committedInstType_1::SimdSha1Hash            0      0.00%     72.44% # Class of committed instruction
system.cpu.commit.committedInstType_1::SimdSha1Hash2            0      0.00%     72.44% # Class of committed instruction
system.cpu.commit.committedInstType_1::SimdSha256Hash            0      0.00%     72.44% # Class of committed instruction
system.cpu.commit.committedInstType_1::SimdSha256Hash2            0      0.00%     72.44% # Class of committed instruction
system.cpu.commit.committedInstType_1::SimdShaSigma2            0      0.00%     72.44% # Class of committed instruction
system.cpu.commit.committedInstType_1::SimdShaSigma3            0      0.00%     72.44% # Class of committed instruction
system.cpu.commit.committedInstType_1::SimdPredAlu            0      0.00%     72.44% # Class of committed instruction
system.cpu.commit.committedInstType_1::MemRead     29407288     18.94%     91.38% # Class of committed instruction
system.cpu.commit.committedInstType_1::MemWrite     12227999      7.88%     99.26% # Class of committed instruction
system.cpu.commit.committedInstType_1::FloatMemRead        42595      0.03%     99.28% # Class of committed instruction
system.cpu.commit.committedInstType_1::FloatMemWrite      1110578      0.72%    100.00% # Class of committed instruction
system.cpu.commit.committedInstType_1::IprAccess            0      0.00%    100.00% # Class of committed instruction
system.cpu.commit.committedInstType_1::InstPrefetch            0      0.00%    100.00% # Class of committed instruction
system.cpu.commit.committedInstType_1::total    155229019                       # Class of committed instruction
system.cpu.commit.committedInstType::total    310458025      0.00%      0.00% # Class of committed instruction
system.cpu.commit.commitEligibleSamples      14785025                       # number cycles where commit BW limit reached
system.cpu.dcache.demand_hits::.cpu.data     79436667                       # number of demand (read+write) hits
system.cpu.dcache.demand_hits::total         79436667                       # number of demand (read+write) hits
system.cpu.dcache.overall_hits::.cpu.data     79436667                       # number of overall hits
system.cpu.dcache.overall_hits::total        79436667                       # number of overall hits
system.cpu.dcache.demand_misses::.cpu.data      1501672                       # number of demand (read+write) misses
system.cpu.dcache.demand_misses::total        1501672                       # number of demand (read+write) misses
system.cpu.dcache.overall_misses::.cpu.data      1501672                       # number of overall misses
system.cpu.dcache.overall_misses::total       1501672                       # number of overall misses
system.cpu.dcache.demand_miss_latency::.cpu.data  24822542296                       # number of demand (read+write) miss cycles
system.cpu.dcache.demand_miss_latency::total  24822542296                       # number of demand (read+write) miss cycles
system.cpu.dcache.overall_miss_latency::.cpu.data  24822542296                       # number of overall miss cycles
system.cpu.dcache.overall_miss_latency::total  24822542296                       # number of overall miss cycles
system.cpu.dcache.demand_accesses::.cpu.data     80938339                       # number of demand (read+write) accesses
system.cpu.dcache.demand_accesses::total     80938339                       # number of demand (read+write) accesses
system.cpu.dcache.overall_accesses::.cpu.data     80938339                       # number of overall (read+write) accesses
system.cpu.dcache.overall_accesses::total     80938339                       # number of overall (read+write) accesses
system.cpu.dcache.demand_miss_rate::.cpu.data     0.018553                       # miss rate for demand accesses
system.cpu.dcache.demand_miss_rate::total     0.018553                       # miss rate for demand accesses
system.cpu.dcache.overall_miss_rate::.cpu.data     0.018553                       # miss rate for overall accesses
system.cpu.dcache.overall_miss_rate::total     0.018553                       # miss rate for overall accesses
system.cpu.dcache.demand_avg_miss_latency::.cpu.data 16529.936162                       # average overall miss latency
system.cpu.dcache.demand_avg_miss_latency::total 16529.936162                       # average overall miss latency
system.cpu.dcache.overall_avg_miss_latency::.cpu.data 16529.936162                       # average overall miss latency
system.cpu.dcache.overall_avg_miss_latency::total 16529.936162                       # average overall miss latency
system.cpu.dcache.blocked_cycles::no_mshrs            6                       # number of cycles access was blocked
system.cpu.dcache.blocked_cycles::no_targets       226908                       # number of cycles access was blocked
system.cpu.dcache.blocked::no_mshrs                 2                       # number of cycles access was blocked
system.cpu.dcache.blocked::no_targets            2899                       # number of cycles access was blocked
system.cpu.dcache.avg_blocked_cycles::no_mshrs            3                       # average number of cycles each access was blocked
system.cpu.dcache.avg_blocked_cycles::no_targets    78.271128                       # average number of cycles each access was blocked
system.cpu.dcache.writebacks::.writebacks       858944                       # number of writebacks
system.cpu.dcache.writebacks::total            858944                       # number of writebacks
system.cpu.dcache.demand_mshr_hits::.cpu.data       642538                       # number of demand (read+write) MSHR hits
system.cpu.dcache.demand_mshr_hits::total       642538                       # number of demand (read+write) MSHR hits
system.cpu.dcache.overall_mshr_hits::.cpu.data       642538                       # number of overall MSHR hits
system.cpu.dcache.overall_mshr_hits::total       642538                       # number of overall MSHR hits
system.cpu.dcache.demand_mshr_misses::.cpu.data       859134                       # number of demand (read+write) MSHR misses
system.cpu.dcache.demand_mshr_misses::total       859134                       # number of demand (read+write) MSHR misses
system.cpu.dcache.overall_mshr_misses::.cpu.data       859134                       # number of overall MSHR misses
system.cpu.dcache.overall_mshr_misses::total       859134                       # number of overall MSHR misses
system.cpu.dcache.demand_mshr_miss_latency::.cpu.data  14417129296                       # number of demand (read+write) MSHR miss cycles
system.cpu.dcache.demand_mshr_miss_latency::total  14417129296                       # number of demand (read+write) MSHR miss cycles
system.cpu.dcache.overall_mshr_miss_latency::.cpu.data  14417129296                       # number of overall MSHR miss cycles
system.cpu.dcache.overall_mshr_miss_latency::total  14417129296                       # number of overall MSHR miss cycles
system.cpu.dcache.demand_mshr_miss_rate::.cpu.data     0.010615                       # mshr miss rate for demand accesses
system.cpu.dcache.demand_mshr_miss_rate::total     0.010615                       # mshr miss rate for demand accesses
system.cpu.dcache.overall_mshr_miss_rate::.cpu.data     0.010615                       # mshr miss rate for overall accesses
system.cpu.dcache.overall_mshr_miss_rate::total     0.010615                       # mshr miss rate for overall accesses
system.cpu.dcache.demand_avg_mshr_miss_latency::.cpu.data 16781.001911                       # average overall mshr miss latency
system.cpu.dcache.demand_avg_mshr_miss_latency::total 16781.001911                       # average overall mshr miss latency
system.cpu.dcache.overall_avg_mshr_miss_latency::.cpu.data 16781.001911                       # average overall mshr miss latency
system.cpu.dcache.overall_avg_mshr_miss_latency::total 16781.001911                       # average overall mshr miss latency
system.cpu.dcache.replacements                  19159                       # number of replacements
system.cpu.dcache.expired                      839785                       # dead blocks evicted
system.cpu.dcache.ReadReq_hits::.cpu.data     52844835                       # number of ReadReq hits
system.cpu.dcache.ReadReq_hits::total        52844835                       # number of ReadReq hits
system.cpu.dcache.ReadReq_misses::.cpu.data      1416347                       # number of ReadReq misses
system.cpu.dcache.ReadReq_misses::total       1416347                       # number of ReadReq misses
system.cpu.dcache.ReadReq_miss_latency::.cpu.data  19526297000                       # number of ReadReq miss cycles
system.cpu.dcache.ReadReq_miss_latency::total  19526297000                       # number of ReadReq miss cycles
system.cpu.dcache.ReadReq_accesses::.cpu.data     54261182                       # number of ReadReq accesses(hits+misses)
system.cpu.dcache.ReadReq_accesses::total     54261182                       # number of ReadReq accesses(hits+misses)
system.cpu.dcache.ReadReq_miss_rate::.cpu.data     0.026102                       # miss rate for ReadReq accesses
system.cpu.dcache.ReadReq_miss_rate::total     0.026102                       # miss rate for ReadReq accesses
system.cpu.dcache.ReadReq_avg_miss_latency::.cpu.data 13786.379327                       # average ReadReq miss latency
system.cpu.dcache.ReadReq_avg_miss_latency::total 13786.379327                       # average ReadReq miss latency
system.cpu.dcache.ReadReq_mshr_hits::.cpu.data       642513                       # number of ReadReq MSHR hits
system.cpu.dcache.ReadReq_mshr_hits::total       642513                       # number of ReadReq MSHR hits
system.cpu.dcache.ReadReq_mshr_misses::.cpu.data       773834                       # number of ReadReq MSHR misses
system.cpu.dcache.ReadReq_mshr_misses::total       773834                       # number of ReadReq MSHR misses
system.cpu.dcache.ReadReq_mshr_miss_latency::.cpu.data   9206601500                       # number of ReadReq MSHR miss cycles
system.cpu.dcache.ReadReq_mshr_miss_latency::total   9206601500                       # number of ReadReq MSHR miss cycles
system.cpu.dcache.ReadReq_mshr_miss_rate::.cpu.data     0.014261                       # mshr miss rate for ReadReq accesses
system.cpu.dcache.ReadReq_mshr_miss_rate::total     0.014261                       # mshr miss rate for ReadReq accesses
system.cpu.dcache.ReadReq_avg_mshr_miss_latency::.cpu.data 11897.385615                       # average ReadReq mshr miss latency
system.cpu.dcache.ReadReq_avg_mshr_miss_latency::total 11897.385615                       # average ReadReq mshr miss latency
system.cpu.dcache.WriteReq_hits::.cpu.data     26591832                       # number of WriteReq hits
system.cpu.dcache.WriteReq_hits::total       26591832                       # number of WriteReq hits
system.cpu.dcache.WriteReq_misses::.cpu.data        85325                       # number of WriteReq misses
system.cpu.dcache.WriteReq_misses::total        85325                       # number of WriteReq misses
system.cpu.dcache.WriteReq_miss_latency::.cpu.data   5296245296                       # number of WriteReq miss cycles
system.cpu.dcache.WriteReq_miss_latency::total   5296245296                       # number of WriteReq miss cycles
system.cpu.dcache.WriteReq_accesses::.cpu.data     26677157                       # number of WriteReq accesses(hits+misses)
system.cpu.dcache.WriteReq_accesses::total     26677157                       # number of WriteReq accesses(hits+misses)
system.cpu.dcache.WriteReq_miss_rate::.cpu.data     0.003198                       # miss rate for WriteReq accesses
system.cpu.dcache.WriteReq_miss_rate::total     0.003198                       # miss rate for WriteReq accesses
system.cpu.dcache.WriteReq_avg_miss_latency::.cpu.data 62071.436226                       # average WriteReq miss latency
system.cpu.dcache.WriteReq_avg_miss_latency::total 62071.436226                       # average WriteReq miss latency
system.cpu.dcache.WriteReq_mshr_hits::.cpu.data           25                       # number of WriteReq MSHR hits
system.cpu.dcache.WriteReq_mshr_hits::total           25                       # number of WriteReq MSHR hits
system.cpu.dcache.WriteReq_mshr_misses::.cpu.data        85300                       # number of WriteReq MSHR misses
system.cpu.dcache.WriteReq_mshr_misses::total        85300                       # number of WriteReq MSHR misses
system.cpu.dcache.WriteReq_mshr_miss_latency::.cpu.data   5210527796                       # number of WriteReq MSHR miss cycles
system.cpu.dcache.WriteReq_mshr_miss_latency::total   5210527796                       # number of WriteReq MSHR miss cycles
system.cpu.dcache.WriteReq_mshr_miss_rate::.cpu.data     0.003197                       # mshr miss rate for WriteReq accesses
system.cpu.dcache.WriteReq_mshr_miss_rate::total     0.003197                       # mshr miss rate for WriteReq accesses
system.cpu.dcache.WriteReq_avg_mshr_miss_latency::.cpu.data 61084.733834                       # average WriteReq mshr miss latency
system.cpu.dcache.WriteReq_avg_mshr_miss_latency::total 61084.733834                       # average WriteReq mshr miss latency
system.cpu.dcache.power_state.pwrStateResidencyTicks::UNDEFINED  52480575500                       # Cumulative time (in ticks) in various power states
system.cpu.dcache.tags.tagsinuse           190.426051                       # Cycle average of tags in use
system.cpu.dcache.tags.total_refs            80295801                       # Total number of references to valid blocks.
system.cpu.dcache.tags.sampled_refs            859134                       # Sample count of references to valid blocks.
system.cpu.dcache.tags.avg_refs             93.461324                       # Average number of references to valid blocks.
system.cpu.dcache.tags.warmup_cycle            190500                       # Cycle when the warmup percentage was hit.
system.cpu.dcache.tags.occ_blocks::.cpu.data   190.426051                       # Average occupied blocks per requestor
system.cpu.dcache.tags.occ_percent::.cpu.data     0.371926                       # Average percentage of cache occupancy
system.cpu.dcache.tags.occ_percent::total     0.371926                       # Average percentage of cache occupancy
system.cpu.dcache.tags.occ_task_id_blocks::1024          190                       # Occupied blocks per task id
system.cpu.dcache.tags.age_task_id_blocks_1024::0            6                       # Occupied blocks per task id
system.cpu.dcache.tags.age_task_id_blocks_1024::1           36                       # Occupied blocks per task id
system.cpu.dcache.tags.age_task_id_blocks_1024::2           82                       # Occupied blocks per task id
system.cpu.dcache.tags.age_task_id_blocks_1024::3           26                       # Occupied blocks per task id
system.cpu.dcache.tags.age_task_id_blocks_1024::4           40                       # Occupied blocks per task id
system.cpu.dcache.tags.occ_task_id_percent::1024     0.371094                       # Percentage of cache occupancy per task id
system.cpu.dcache.tags.tag_accesses         648365846                       # Number of tag accesses
system.cpu.dcache.tags.data_accesses        648365846                       # Number of data accesses
system.cpu.dcache.tags.power_state.pwrStateResidencyTicks::UNDEFINED  52480575500                       # Cumulative time (in ticks) in various power states
system.cpu.decode.idleCycles                 62153393                       # Number of cycles decode is idle
system.cpu.decode.blockedCycles              41682636                       # Number of cycles decode is blocked
system.cpu.decode.runCycles                  91028661                       # Number of cycles decode is running
system.cpu.decode.unblockCycles              13610702                       # Number of cycles decode is unblocking
system.cpu.decode.squashCycles                1260788                       # Number of cycles decode is squashing
system.cpu.decode.branchResolved             15858980                       # Number of times decode resolved a  branch
system.cpu.decode.branchMispred                 11890                       # Number of times decode detected a branch misprediction
system.cpu.decode.decodedInsts              371729906                       # Number of instructions handled by decode
system.cpu.decode.squashedInsts               4402938                       # Number of squashed instructions handled by decode
system.cpu.dtb.rdAccesses                    62330420                       # TLB accesses on read requests
system.cpu.dtb.wrAccesses                    27522869                       # TLB accesses on write requests
system.cpu.dtb.rdMisses                       1209739                       # TLB misses on read requests
system.cpu.dtb.wrMisses                        149188                       # TLB misses on write requests
system.cpu.dtb.walker.power_state.pwrStateResidencyTicks::UNDEFINED  52480575500                       # Cumulative time (in ticks) in various power states
system.cpu.dtb_walker_cache.blocked_cycles::no_mshrs            0                       # number of cycles access was blocked
system.cpu.dtb_walker_cache.blocked_cycles::no_targets            0                       # number of cycles access was blocked
system.cpu.dtb_walker_cache.blocked::no_mshrs            0                       # number of cycles access was blocked
system.cpu.dtb_walker_cache.blocked::no_targets            0                       # number of cycles access was blocked
system.cpu.dtb_walker_cache.avg_blocked_cycles::no_mshrs          nan                       # average number of cycles each access was blocked
system.cpu.dtb_walker_cache.avg_blocked_cycles::no_targets          nan                       # average number of cycles each access was blocked
system.cpu.dtb_walker_cache.replacements            0                       # number of replacements
system.cpu.dtb_walker_cache.expired                 0                       # dead blocks evicted
system.cpu.dtb_walker_cache.power_state.pwrStateResidencyTicks::UNDEFINED  52480575500                       # Cumulative time (in ticks) in various power states
system.cpu.dtb_walker_cache.tags.tagsinuse            0                       # Cycle average of tags in use
system.cpu.dtb_walker_cache.tags.total_refs            0                       # Total number of references to valid blocks.
system.cpu.dtb_walker_cache.tags.sampled_refs            0                       # Sample count of references to valid blocks.
system.cpu.dtb_walker_cache.tags.avg_refs          nan                       # Average number of references to valid blocks.
system.cpu.dtb_walker_cache.tags.warmup_cycle            0                       # Cycle when the warmup percentage was hit.
system.cpu.dtb_walker_cache.tags.tag_accesses            0                       # Number of tag accesses
system.cpu.dtb_walker_cache.tags.data_accesses            0                       # Number of data accesses
system.cpu.dtb_walker_cache.tags.power_state.pwrStateResidencyTicks::UNDEFINED  52480575500                       # Cumulative time (in ticks) in various power states
system.cpu.fetch.icacheStallCycles            1039619                       # Number of cycles fetch is stalled on an Icache miss
system.cpu.fetch.insts                      242824699                       # Number of instructions fetch has processed
system.cpu.fetch.branches                    33650908                       # Number of branches that fetch encountered
system.cpu.fetch.predictedBranches           22152476                       # Number of branches that fetch has predicted taken
system.cpu.fetch.cycles                     103659640                       # Number of cycles fetch has run and was not squashing or blocked
system.cpu.fetch.squashCycles                 1272305                       # Number of cycles fetch has spent squashing
system.cpu.fetch.tlbCycles                       1664                       # Number of cycles fetch has spent waiting for tlb
system.cpu.fetch.miscStallCycles                   77                       # Number of cycles fetch has spent waiting on interrupts,or bad addresses, or out of MSHRs
system.cpu.fetch.cacheLines                  71476206                       # Number of cache lines fetched
system.cpu.fetch.icacheSquashes                  3893                       # Number of outstanding Icache misses that were squashed
system.cpu.fetch.tlbSquashes                      681                       # Number of outstanding ITLB misses that were squashed
system.cpu.fetch.SMTDist::samples           104868090                       # Number of Cycles each Thread Fetched
system.cpu.fetch.SMTDist::mean               0.497027                       # Number of Cycles each Thread Fetched
system.cpu.fetch.SMTDist::stdev              0.503168                       # Number of Cycles each Thread Fetched
system.cpu.fetch.SMTDist::underflows                0      0.00%      0.00% # Number of Cycles each Thread Fetched
system.cpu.fetch.SMTDist::-1                   167090      0.16%      0.16% # Number of Cycles each Thread Fetched
system.cpu.fetch.SMTDist::0                  52411626     49.98%     50.14% # Number of Cycles each Thread Fetched
system.cpu.fetch.SMTDist::1                  52289374     49.86%    100.00% # Number of Cycles each Thread Fetched
system.cpu.fetch.SMTDist::2                         0      0.00%    100.00% # Number of Cycles each Thread Fetched
system.cpu.fetch.SMTDist::overflows                 0      0.00%    100.00% # Number of Cycles each Thread Fetched
system.cpu.fetch.SMTDist::min_value                -1                       # Number of Cycles each Thread Fetched
system.cpu.fetch.SMTDist::max_value                 1                       # Number of Cycles each Thread Fetched
system.cpu.fetch.SMTDist::total             104868090                       # Number of Cycles each Thread Fetched
system.cpu.fetch.nisnDist::samples          104868090                       # Number of instructions fetched each cycle (Total)
system.cpu.fetch.nisnDist::mean              3.712084                       # Number of instructions fetched each cycle (Total)
system.cpu.fetch.nisnDist::stdev             2.821471                       # Number of instructions fetched each cycle (Total)
system.cpu.fetch.nisnDist::underflows               0      0.00%      0.00% # Number of instructions fetched each cycle (Total)
system.cpu.fetch.nisnDist::0                 24792438     23.64%     23.64% # Number of instructions fetched each cycle (Total)
system.cpu.fetch.nisnDist::1                  3382409      3.23%     26.87% # Number of instructions fetched each cycle (Total)
system.cpu.fetch.nisnDist::2                 11173756     10.66%     37.52% # Number of instructions fetched each cycle (Total)
system.cpu.fetch.nisnDist::3                 11234557     10.71%     48.24% # Number of instructions fetched each cycle (Total)
system.cpu.fetch.nisnDist::4                 11143199     10.63%     58.86% # Number of instructions fetched each cycle (Total)
system.cpu.fetch.nisnDist::5                 11626203     11.09%     69.95% # Number of instructions fetched each cycle (Total)
system.cpu.fetch.nisnDist::6                  9734532      9.28%     79.23% # Number of instructions fetched each cycle (Total)
system.cpu.fetch.nisnDist::7                  5513453      5.26%     84.49% # Number of instructions fetched each cycle (Total)
system.cpu.fetch.nisnDist::8                 16267543     15.51%    100.00% # Number of instructions fetched each cycle (Total)
system.cpu.fetch.nisnDist::overflows                0      0.00%    100.00% # Number of instructions fetched each cycle (Total)
system.cpu.fetch.nisnDist::min_value                0                       # Number of instructions fetched each cycle (Total)
system.cpu.fetch.nisnDist::max_value                8                       # Number of instructions fetched each cycle (Total)
system.cpu.fetch.nisnDist::total            104868090                       # Number of instructions fetched each cycle (Total)
system.cpu.fetch.branchRate                  0.320603                       # Number of branch fetches per cycle
system.cpu.fetch.rate                        2.313472                       # Number of inst fetches per cycle
system.cpu.icache.demand_hits::.cpu.inst     71468147                       # number of demand (read+write) hits
system.cpu.icache.demand_hits::total         71468147                       # number of demand (read+write) hits
system.cpu.icache.overall_hits::.cpu.inst     71468147                       # number of overall hits
system.cpu.icache.overall_hits::total        71468147                       # number of overall hits
system.cpu.icache.demand_misses::.cpu.inst         8056                       # number of demand (read+write) misses
system.cpu.icache.demand_misses::total           8056                       # number of demand (read+write) misses
system.cpu.icache.overall_misses::.cpu.inst         8056                       # number of overall misses
system.cpu.icache.overall_misses::total          8056                       # number of overall misses
system.cpu.icache.demand_miss_latency::.cpu.inst    393823500                       # number of demand (read+write) miss cycles
system.cpu.icache.demand_miss_latency::total    393823500                       # number of demand (read+write) miss cycles
[...]
system.mem_ctrls1.dram.perBankWrBursts::4          320                       # Per bank write bursts
system.mem_ctrls1.dram.perBankWrBursts::5          328                       # Per bank write bursts
system.mem_ctrls1.dram.perBankWrBursts::6          320                       # Per bank write bursts
system.mem_ctrls1.dram.perBankWrBursts::7          322                       # Per bank write bursts
system.mem_ctrls1.dram.perBankWrBursts::8          327                       # Per bank write bursts
system.mem_ctrls1.dram.perBankWrBursts::9          335                       # Per bank write bursts
system.mem_ctrls1.dram.perBankWrBursts::10          309                       # Per bank write bursts
system.mem_ctrls1.dram.perBankWrBursts::11          303                       # Per bank write bursts
system.mem_ctrls1.dram.perBankWrBursts::12          255                       # Per bank write bursts
system.mem_ctrls1.dram.perBankWrBursts::13          340                       # Per bank write bursts
system.mem_ctrls1.dram.perBankWrBursts::14          322                       # Per bank write bursts
system.mem_ctrls1.dram.perBankWrBursts::15          336                       # Per bank write bursts
system.mem_ctrls1.dram.perBankWrBursts::16          347                       # Per bank write bursts
system.mem_ctrls1.dram.perBankWrBursts::17          359                       # Per bank write bursts
system.mem_ctrls1.dram.perBankWrBursts::18          279                       # Per bank write bursts
system.mem_ctrls1.dram.perBankWrBursts::19          381                       # Per bank write bursts
system.mem_ctrls1.dram.perBankWrBursts::20          358                       # Per bank write bursts
system.mem_ctrls1.dram.perBankWrBursts::21          366                       # Per bank write bursts
system.mem_ctrls1.dram.perBankWrBursts::22          359                       # Per bank write bursts
system.mem_ctrls1.dram.perBankWrBursts::23          345                       # Per bank write bursts
system.mem_ctrls1.dram.perBankWrBursts::24          356                       # Per bank write bursts
system.mem_ctrls1.dram.perBankWrBursts::25          376                       # Per bank write bursts
system.mem_ctrls1.dram.perBankWrBursts::26          329                       # Per bank write bursts
system.mem_ctrls1.dram.perBankWrBursts::27          336                       # Per bank write bursts
system.mem_ctrls1.dram.perBankWrBursts::28          351                       # Per bank write bursts
system.mem_ctrls1.dram.perBankWrBursts::29          349                       # Per bank write bursts
system.mem_ctrls1.dram.perBankWrBursts::30          330                       # Per bank write bursts
system.mem_ctrls1.dram.perBankWrBursts::31          331                       # Per bank write bursts
system.mem_ctrls1.dram.totQLat              390655130                       # Total ticks spent queuing
system.mem_ctrls1.dram.totBusLat            158023432                       # Total ticks spent in databus transfers
system.mem_ctrls1.dram.totMemAccLat        1220230722                       # Total ticks spent from burst creation until serviced by the DRAM
system.mem_ctrls1.dram.avgQLat                8237.15                       # Average queueing delay per DRAM burst
system.mem_ctrls1.dram.avgBusLat              3332.00                       # Average bus latency per DRAM burst
system.mem_ctrls1.dram.avgMemAccLat          25729.15                       # Average memory access latency per DRAM burst
system.mem_ctrls1.dram.readRowHits              40737                       # Number of row buffer hits during reads
system.mem_ctrls1.dram.writeRowHits              7196                       # Number of row buffer hits during writes
system.mem_ctrls1.dram.readRowHitRate           85.90                       # Row buffer hit rate for reads
system.mem_ctrls1.dram.writeRowHitRate          67.02                       # Row buffer hit rate for writes
system.mem_ctrls1.dram.bytesPerActivate::samples        10230                       # Bytes accessed per row activation
system.mem_ctrls1.dram.bytesPerActivate::mean   363.874096                       # Bytes accessed per row activation
system.mem_ctrls1.dram.bytesPerActivate::gmean   226.281944                       # Bytes accessed per row activation
system.mem_ctrls1.dram.bytesPerActivate::stdev   351.485497                       # Bytes accessed per row activation
system.mem_ctrls1.dram.bytesPerActivate::0-127         2262     22.11%     22.11% # Bytes accessed per row activation
system.mem_ctrls1.dram.bytesPerActivate::128-255         3175     31.04%     53.15% # Bytes accessed per row activation
system.mem_ctrls1.dram.bytesPerActivate::256-383         1277     12.48%     65.63% # Bytes accessed per row activation
system.mem_ctrls1.dram.bytesPerActivate::384-511          785      7.67%     73.30% # Bytes accessed per row activation
system.mem_ctrls1.dram.bytesPerActivate::512-639          379      3.70%     77.01% # Bytes accessed per row activation
system.mem_ctrls1.dram.bytesPerActivate::640-767          210      2.05%     79.06% # Bytes accessed per row activation
system.mem_ctrls1.dram.bytesPerActivate::768-895          190      1.86%     80.92% # Bytes accessed per row activation
system.mem_ctrls1.dram.bytesPerActivate::896-1023          152      1.49%     82.40% # Bytes accessed per row activation
system.mem_ctrls1.dram.bytesPerActivate::1024-1151         1800     17.60%    100.00% # Bytes accessed per row activation
system.mem_ctrls1.dram.bytesPerActivate::total        10230                       # Bytes accessed per row activation
system.mem_ctrls1.dram.bytesRead              3035264                       # Total number of bytes read from DRAM
system.mem_ctrls1.dram.bytesWritten            687168                       # Total number of bytes written to DRAM
system.mem_ctrls1.dram.avgRdBW              57.835951                       # Average DRAM read bandwidth in MiBytes/s
system.mem_ctrls1.dram.avgWrBW              13.093759                       # Average DRAM write bandwidth in MiBytes/s
system.mem_ctrls1.dram.peakBW                19207.00                       # Theoretical peak bandwidth in MiByte/s
system.mem_ctrls1.dram.busUtil                   0.37                       # Data bus utilization in percentage
system.mem_ctrls1.dram.busUtilRead               0.30                       # Data bus utilization in percentage for reads
system.mem_ctrls1.dram.busUtilWrite              0.07                       # Data bus utilization in percentage for writes
system.mem_ctrls1.dram.pageHitRate              82.41                       # Row buffer hit rate, read and write combined
system.mem_ctrls1.dram.power_state.pwrStateResidencyTicks::UNDEFINED  52480575500                       # Cumulative time (in ticks) in various power states
system.mem_ctrls1.dram.rank0.actEnergy   14106115.296000                       # Energy for activate commands per rank (pJ)
system.mem_ctrls1.dram.rank0.preEnergy   18753899.438400                       # Energy for precharge commands per rank (pJ)
system.mem_ctrls1.dram.rank0.readEnergy  92644127.520000                       # Energy for read commands per rank (pJ)
system.mem_ctrls1.dram.rank0.writeEnergy 19487801.760000                       # Energy for write commands per rank (pJ)
system.mem_ctrls1.dram.rank0.refreshEnergy 9337445207.328062                       # Energy for refresh commands per rank (pJ)
system.mem_ctrls1.dram.rank0.actBackEnergy 5056322309.741790                       # Energy for active background per rank (pJ)
system.mem_ctrls1.dram.rank0.preBackEnergy 30374236227.687141                       # Energy for precharge background per rank (pJ)
system.mem_ctrls1.dram.rank0.actPowerDownEnergy            0                       # Energy for active power-down per rank (pJ)
system.mem_ctrls1.dram.rank0.prePowerDownEnergy            0                       # Energy for precharge power-down per rank (pJ)
system.mem_ctrls1.dram.rank0.selfRefreshEnergy            0                       # Energy for self refresh per rank (pJ)
system.mem_ctrls1.dram.rank0.totalEnergy 44912995688.771568                       # Total energy per rank (pJ)
system.mem_ctrls1.dram.rank0.averagePower   855.802271                       # Core power per rank (mW)
system.mem_ctrls1.dram.rank0.totalIdleTime            0                       # Total Idle time Per DRAM Rank
system.mem_ctrls1.dram.rank0.pwrStateTime::IDLE  46420287820                       # Time in different power states
system.mem_ctrls1.dram.rank0.pwrStateTime::REF   2359000000                       # Time in different power states
system.mem_ctrls1.dram.rank0.pwrStateTime::SREF            0                       # Time in different power states
system.mem_ctrls1.dram.rank0.pwrStateTime::PRE_PDN            0                       # Time in different power states
system.mem_ctrls1.dram.rank0.pwrStateTime::ACT   3701287680                       # Time in different power states
system.mem_ctrls1.dram.rank0.pwrStateTime::ACT_PDN            0                       # Time in different power states
system.mem_ctrls1.dram.rank1.actEnergy   17798717.664000                       # Energy for activate commands per rank (pJ)
system.mem_ctrls1.dram.rank1.preEnergy   23663166.945599                       # Energy for precharge commands per rank (pJ)
system.mem_ctrls1.dram.rank1.readEnergy  106844653.036799                       # Energy for read commands per rank (pJ)
system.mem_ctrls1.dram.rank1.writeEnergy 20867169.792000                       # Energy for write commands per rank (pJ)
system.mem_ctrls1.dram.rank1.refreshEnergy 9337445207.328062                       # Energy for refresh commands per rank (pJ)
system.mem_ctrls1.dram.rank1.actBackEnergy 7229688047.568894                       # Energy for active background per rank (pJ)
system.mem_ctrls1.dram.rank1.preBackEnergy 28704305491.277416                       # Energy for precharge background per rank (pJ)
system.mem_ctrls1.dram.rank1.actPowerDownEnergy            0                       # Energy for active power-down per rank (pJ)
system.mem_ctrls1.dram.rank1.prePowerDownEnergy            0                       # Energy for precharge power-down per rank (pJ)
system.mem_ctrls1.dram.rank1.selfRefreshEnergy            0                       # Energy for self refresh per rank (pJ)
system.mem_ctrls1.dram.rank1.totalEnergy 45440612453.613174                       # Total energy per rank (pJ)
system.mem_ctrls1.dram.rank1.averagePower   865.855834                       # Core power per rank (mW)
system.mem_ctrls1.dram.rank1.totalIdleTime            0                       # Total Idle time Per DRAM Rank
system.mem_ctrls1.dram.rank1.pwrStateTime::IDLE  43851332945                       # Time in different power states
system.mem_ctrls1.dram.rank1.pwrStateTime::REF   2359000000                       # Time in different power states
system.mem_ctrls1.dram.rank1.pwrStateTime::SREF            0                       # Time in different power states
system.mem_ctrls1.dram.rank1.pwrStateTime::PRE_PDN            0                       # Time in different power states
system.mem_ctrls1.dram.rank1.pwrStateTime::ACT   6270242555                       # Time in different power states
system.mem_ctrls1.dram.rank1.pwrStateTime::ACT_PDN            0                       # Time in different power states
system.mem_ctrls1.power_state.pwrStateResidencyTicks::UNDEFINED  52480575500                       # Cumulative time (in ticks) in various power states
system.membus.trans_dist::ReadResp              21819                       # Transaction distribution
system.membus.trans_dist::WritebackDirty        21556                       # Transaction distribution
system.membus.trans_dist::CleanEvict             7774                       # Transaction distribution
system.membus.trans_dist::ReadExReq             73204                       # Transaction distribution
system.membus.trans_dist::ReadExResp            73204                       # Transaction distribution
system.membus.trans_dist::ReadSharedReq         21819                       # Transaction distribution
system.membus.pkt_count_system.l2.mem_side_port::system.mem_ctrls0.port       109870                       # Packet count per connected requestor and responder (bytes)
system.membus.pkt_count_system.l2.mem_side_port::system.mem_ctrls1.port       109506                       # Packet count per connected requestor and responder (bytes)
system.membus.pkt_count_system.l2.mem_side_port::total       219376                       # Packet count per connected requestor and responder (bytes)
system.membus.pkt_count::total                 219376                       # Packet count per connected requestor and responder (bytes)
system.membus.pkt_size_system.l2.mem_side_port::system.mem_ctrls0.port      3733184                       # Cumulative packet size per connected requestor and responder (bytes)
system.membus.pkt_size_system.l2.mem_side_port::system.mem_ctrls1.port      3727872                       # Cumulative packet size per connected requestor and responder (bytes)
system.membus.pkt_size_system.l2.mem_side_port::total      7461056                       # Cumulative packet size per connected requestor and responder (bytes)
system.membus.pkt_size::total                 7461056                       # Cumulative packet size per connected requestor and responder (bytes)
system.membus.snoops                                0                       # Total snoops (count)
system.membus.snoopTraffic                          0                       # Total snoop traffic (bytes)
system.membus.snoop_fanout::samples             95023                       # Request fanout histogram
system.membus.snoop_fanout::mean                    0                       # Request fanout histogram
system.membus.snoop_fanout::stdev                   0                       # Request fanout histogram
system.membus.snoop_fanout::underflows              0      0.00%      0.00% # Request fanout histogram
system.membus.snoop_fanout::0                   95023    100.00%    100.00% # Request fanout histogram
system.membus.snoop_fanout::1                       0      0.00%    100.00% # Request fanout histogram
system.membus.snoop_fanout::overflows               0      0.00%    100.00% # Request fanout histogram
system.membus.snoop_fanout::min_value               0                       # Request fanout histogram
system.membus.snoop_fanout::max_value               0                       # Request fanout histogram
system.membus.snoop_fanout::total               95023                       # Request fanout histogram
system.membus.power_state.pwrStateResidencyTicks::UNDEFINED  52480575500                       # Cumulative time (in ticks) in various power states
system.membus.reqLayer4.occupancy           116410400                       # Layer occupancy (ticks)
system.membus.reqLayer4.utilization               0.2                       # Layer utilization (%)
system.membus.reqLayer5.occupancy           116223410                       # Layer occupancy (ticks)
system.membus.reqLayer5.utilization               0.2                       # Layer utilization (%)
system.membus.respLayer1.occupancy          502419037                       # Layer occupancy (ticks)
system.membus.respLayer1.utilization              1.0                       # Layer utilization (%)
system.tol2bus.trans_dist::ReadResp            780410                       # Transaction distribution
system.tol2bus.trans_dist::WritebackDirty       823192                       # Transaction distribution
system.tol2bus.trans_dist::WritebackClean        63374                       # Transaction distribution
system.tol2bus.trans_dist::CleanEvict            7994                       # Transaction distribution
system.tol2bus.trans_dist::HardPFReq              116                       # Transaction distribution
system.tol2bus.trans_dist::ReadExReq            85302                       # Transaction distribution
system.tol2bus.trans_dist::ReadExResp           85302                       # Transaction distribution
system.tol2bus.trans_dist::ReadCleanReq          6578                       # Transaction distribution
system.tol2bus.trans_dist::ReadSharedReq       773832                       # Transaction distribution
system.tol2bus.pkt_count_system.cpu.icache.mem_side_port::system.l2.cpu_side_port        19221                       # Packet count per connected requestor and responder (bytes)
system.tol2bus.pkt_count_system.cpu.dcache.mem_side_port::system.l2.cpu_side_port      2577212                       # Packet count per connected requestor and responder (bytes)
system.tol2bus.pkt_count::total               2596433                       # Packet count per connected requestor and responder (bytes)
system.tol2bus.pkt_size_system.cpu.icache.mem_side_port::system.l2.cpu_side_port       809152                       # Cumulative packet size per connected requestor and responder (bytes)
system.tol2bus.pkt_size_system.cpu.dcache.mem_side_port::system.l2.cpu_side_port    109956992                       # Cumulative packet size per connected requestor and responder (bytes)
system.tol2bus.pkt_size::total              110766144                       # Cumulative packet size per connected requestor and responder (bytes)
system.tol2bus.snoops                           29667                       # Total snoops (count)
system.tol2bus.snoopTraffic                   1379648                       # Total snoop traffic (bytes)
system.tol2bus.snoop_fanout::samples           895378                       # Request fanout histogram
system.tol2bus.snoop_fanout::mean            0.000283                       # Request fanout histogram
system.tol2bus.snoop_fanout::stdev           0.016807                       # Request fanout histogram
system.tol2bus.snoop_fanout::underflows             0      0.00%      0.00% # Request fanout histogram
system.tol2bus.snoop_fanout::0                 895125     99.97%     99.97% # Request fanout histogram
system.tol2bus.snoop_fanout::1                    253      0.03%    100.00% # Request fanout histogram
system.tol2bus.snoop_fanout::2                      0      0.00%    100.00% # Request fanout histogram
system.tol2bus.snoop_fanout::3                      0      0.00%    100.00% # Request fanout histogram
system.tol2bus.snoop_fanout::4                      0      0.00%    100.00% # Request fanout histogram
system.tol2bus.snoop_fanout::overflows              0      0.00%    100.00% # Request fanout histogram
system.tol2bus.snoop_fanout::min_value              0                       # Request fanout histogram
system.tol2bus.snoop_fanout::max_value              1                       # Request fanout histogram
system.tol2bus.snoop_fanout::total             895378                       # Request fanout histogram
system.tol2bus.power_state.pwrStateResidencyTicks::UNDEFINED  52480575500                       # Cumulative time (in ticks) in various power states
system.tol2bus.reqLayer0.occupancy         1730371000                       # Layer occupancy (ticks)
system.tol2bus.reqLayer0.utilization              3.3                       # Layer utilization (%)
system.tol2bus.respLayer0.occupancy           9907918                       # Layer occupancy (ticks)
system.tol2bus.respLayer0.utilization             0.0                       # Layer utilization (%)
system.tol2bus.respLayer1.occupancy        1288715471                       # Layer occupancy (ticks)
system.tol2bus.respLayer1.utilization             2.5                       # Layer utilization (%)
system.voltage_domain.voltage                       1                       # Voltage in Volts

---------- End Simulation Statistics   ----------
