gem5 Simulator System.  http://gem5.org
gem5 is copyrighted software; use the --copyright option for details.

gem5 version [DEVELOP-FOR-V20.1]
gem5 compiled Mar 21 2024 22:07:27
gem5 started Mar 26 2024 21:03:11
gem5 executing on sue-virtual-machine, pid 6903
command line: /root/SecSMT_Artifact/mitigations/gem5/build/X86/gem5.fast --outdir=/root/SecSMT_Artifact/mitigations/results/sec_results/m5out/mcf_all_adaptive --stats-file=stats.txt /root/SecSMT_Artifact/mitigations/gem5/configs/example/se.py -I 100000000 --smt --caches --l2cache --l1d_size=32kB --l1d_assoc=8 --l1i_size=32kB --l1i_assoc=8 --cpu-type=Skylake_3 --maxinsts_threadID=0 --mem-type=DDR4_2400_16x4 --mem-size=64GB --mem-channels=2 -c 'mcf_s_base.mytest-m64 inp.in;mcf1_s_base.mytest-m64 inp1.in' -o 'thread0;thread1' --smtROBPolicy=AdaptiveSMTPolicy --smtIQPolicy=AdaptiveSMTPolicy --smtTLBPolicy=AdaptiveSMTPolicy --smtPhysRegPolicy=AdaptiveSMTPolicy --smtSQPolicy=AdaptiveSMTPolicy --smtLQPolicy=AdaptiveSMTPolicy --smtIssuePolicy=Adaptive --smtAdaptiveInterval=100000000 --smtFetchPolicy=Adaptive --smtBTBPolicy=AdaptiveSMTPolicy --smtCachePolicy=AdaptiveSMTPolicy --smtCommitPolicy=Adaptive

