
---------- Begin Simulation Statistics ----------
final_tick                               134811445500                       # Number of ticks from beginning of simulation (restored from checkpoints and never reset)
host_mem_usage                               68469820                       # Number of bytes of host memory used
host_seconds                                  1518.00                       # Real time elapsed on the host
host_tick_rate                               88808383                       # Simulator tick rate (ticks/s)
sim_freq                                 1000000000000                       # Frequency of simulated ticks
sim_seconds                                  0.134811                       # Number of seconds simulated
sim_ticks                                134811445500                       # Number of ticks simulated
system.cpu.cc_regfile_reads                 210358502                       # number of cc regfile reads
system.cpu.cc_regfile_writes                124096233                       # number of cc regfile writes
system.cpu.committedInsts::0                 99999987                       # Number of Instructions Simulated
system.cpu.committedInsts::1                100000003                       # Number of Instructions Simulated
system.cpu.committedInsts::total            199999990                       # Number of Instructions Simulated
system.cpu.committedOps::0                  201188458                       # Number of Ops (including micro ops) Simulated
system.cpu.committedOps::1                  201188498                       # Number of Ops (including micro ops) Simulated
system.cpu.committedOps::total              402376956                       # Number of Ops (including micro ops) Simulated
system.cpu.cpi::0                            2.696229                       # CPI: Cycles Per Instruction
system.cpu.cpi::1                            2.696229                       # CPI: Cycles Per Instruction
system.cpu.cpi_total                         1.348115                       # CPI: Total CPI of All Threads
system.cpu.fp_regfile_reads                   7199015                       # number of floating regfile reads
system.cpu.fp_regfile_writes                  3165206                       # number of floating regfile writes
system.cpu.idleCycles                         3678866                       # Total number of cycles that the CPU has spent unscheduled due to idling
system.cpu.iew.branchMispredicts              7109292                       # Number of branch mispredicts detected at execute
system.cpu.iew.exec_branches::0              24950946                       # Number of branches executed
system.cpu.iew.exec_branches::1              24931204                       # Number of branches executed
system.cpu.iew.exec_branches::total          49882150                       # Number of branches executed
system.cpu.iew.exec_nop::0                          0                       # number of nop insts executed
system.cpu.iew.exec_nop::1                          0                       # number of nop insts executed
system.cpu.iew.exec_nop::total                      0                       # number of nop insts executed
system.cpu.iew.exec_rate                     1.875974                       # Inst execution rate
system.cpu.iew.exec_refs::0                  54240128                       # number of memory reference insts executed
system.cpu.iew.exec_refs::1                  54131853                       # number of memory reference insts executed
system.cpu.iew.exec_refs::total             108371981                       # number of memory reference insts executed
system.cpu.iew.exec_stores::0                20070137                       # Number of stores executed
system.cpu.iew.exec_stores::1                20059413                       # Number of stores executed
system.cpu.iew.exec_stores::total            40129550                       # Number of stores executed
system.cpu.iew.exec_swp::0                          0                       # number of swp insts executed
system.cpu.iew.exec_swp::1                          0                       # number of swp insts executed
system.cpu.iew.exec_swp::total                      0                       # number of swp insts executed
system.cpu.iew.iewBlockCycles                21300497                       # Number of cycles IEW is blocking
system.cpu.iew.iewDispLoadInsts              76916750                       # Number of dispatched load instructions
system.cpu.iew.iewDispNonSpecInsts               7923                       # Number of dispatched non-speculative instructions
system.cpu.iew.iewDispSquashedInsts                 0                       # Number of squashed instructions skipped by dispatch
system.cpu.iew.iewDispStoreInsts             43985970                       # Number of dispatched store instructions
system.cpu.iew.iewDispatchedInsts           555123397                       # Number of instructions dispatched to IQ
system.cpu.iew.iewExecLoadInsts::0           34169991                       # Number of load instructions executed
system.cpu.iew.iewExecLoadInsts::1           34072440                       # Number of load instructions executed
system.cpu.iew.iewExecLoadInsts::total       68242431                       # Number of load instructions executed
system.cpu.iew.iewExecSquashedInsts           9915146                       # Number of squashed instructions skipped in execute
system.cpu.iew.iewExecutedInsts             505805609                       # Number of executed instructions
system.cpu.iew.iewIQFullEvents                 307041                       # Number of times the IQ has become full, causing a stall
system.cpu.iew.iewIdleCycles                        0                       # Number of cycles IEW is idle
system.cpu.iew.iewLSQFullEvents                584418                       # Number of times the LSQ has become full, causing a stall
system.cpu.iew.iewSquashCycles                6429329                       # Number of cycles IEW is squashing
system.cpu.iew.iewUnblockCycles               1192630                       # Number of cycles IEW is unblocking
system.cpu.iew.memOrderViolationEvents          51172                       # Number of memory order violations
system.cpu.iew.predictedNotTakenIncorrect      6505214                       # Number of branches that were predicted not taken incorrectly
system.cpu.iew.predictedTakenIncorrect         604078                       # Number of branches that were predicted taken incorrectly
system.cpu.iew.wb_consumers::0              267979823                       # num instructions consuming a value
system.cpu.iew.wb_consumers::1              267898741                       # num instructions consuming a value
system.cpu.iew.wb_consumers::total          535878564                       # num instructions consuming a value
system.cpu.iew.wb_count::0                  251429712                       # cumulative count of insts written-back
system.cpu.iew.wb_count::1                  251352165                       # cumulative count of insts written-back
system.cpu.iew.wb_count::total              502781877                       # cumulative count of insts written-back
system.cpu.iew.wb_fanout::0                  0.641079                       # average fanout of values written-back
system.cpu.iew.wb_fanout::1                  0.641113                       # average fanout of values written-back
system.cpu.iew.wb_fanout::total              0.641096                       # average fanout of values written-back
system.cpu.iew.wb_producers::0              171796341                       # num instructions producing a value
system.cpu.iew.wb_producers::1              171753362                       # num instructions producing a value
system.cpu.iew.wb_producers::total          343549703                       # num instructions producing a value
system.cpu.iew.wb_rate::0                    0.932524                       # insts written-back per cycle
system.cpu.iew.wb_rate::1                    0.932236                       # insts written-back per cycle
system.cpu.iew.wb_rate::total                1.864760                       # insts written-back per cycle
system.cpu.iew.wb_sent::0                   251814302                       # cumulative count of insts sent to commit
system.cpu.iew.wb_sent::1                   251731629                       # cumulative count of insts sent to commit
system.cpu.iew.wb_sent::total               503545931                       # cumulative count of insts sent to commit
system.cpu.int_regfile_reads                779244517                       # number of integer regfile reads
system.cpu.int_regfile_writes               405195158                       # number of integer regfile writes
system.cpu.ipc::0                            0.370888                       # IPC: Instructions Per Cycle
system.cpu.ipc::1                            0.370888                       # IPC: Instructions Per Cycle
system.cpu.ipc_total                         0.741777                       # IPC: Total IPC of All Threads
system.cpu.iq.FU_type_0::No_OpClass           3319547      1.27%      1.27% # Type of FU issued
system.cpu.iq.FU_type_0::IntAlu             196468194     75.08%     76.35% # Type of FU issued
system.cpu.iq.FU_type_0::IntMult               291733      0.11%     76.46% # Type of FU issued
system.cpu.iq.FU_type_0::IntDiv                147073      0.06%     76.52% # Type of FU issued
system.cpu.iq.FU_type_0::FloatAdd              135935      0.05%     76.57% # Type of FU issued
system.cpu.iq.FU_type_0::FloatCmp                   0      0.00%     76.57% # Type of FU issued
system.cpu.iq.FU_type_0::FloatCvt                  96      0.00%     76.57% # Type of FU issued
system.cpu.iq.FU_type_0::FloatMult                  0      0.00%     76.57% # Type of FU issued
system.cpu.iq.FU_type_0::FloatMultAcc               0      0.00%     76.57% # Type of FU issued
system.cpu.iq.FU_type_0::FloatDiv                   0      0.00%     76.57% # Type of FU issued
system.cpu.iq.FU_type_0::FloatMisc                  0      0.00%     76.57% # Type of FU issued
system.cpu.iq.FU_type_0::FloatSqrt                  0      0.00%     76.57% # Type of FU issued
system.cpu.iq.FU_type_0::SimdAdd                24298      0.01%     76.58% # Type of FU issued
system.cpu.iq.FU_type_0::SimdAddAcc                 0      0.00%     76.58% # Type of FU issued
system.cpu.iq.FU_type_0::SimdAlu               407083      0.16%     76.73% # Type of FU issued
system.cpu.iq.FU_type_0::SimdCmp                  127      0.00%     76.73% # Type of FU issued
system.cpu.iq.FU_type_0::SimdCvt               126183      0.05%     76.78% # Type of FU issued
system.cpu.iq.FU_type_0::SimdMisc              377618      0.14%     76.93% # Type of FU issued
system.cpu.iq.FU_type_0::SimdMult                   0      0.00%     76.93% # Type of FU issued
system.cpu.iq.FU_type_0::SimdMultAcc                0      0.00%     76.93% # Type of FU issued
system.cpu.iq.FU_type_0::SimdShift              11167      0.00%     76.93% # Type of FU issued
system.cpu.iq.FU_type_0::SimdShiftAcc               0      0.00%     76.93% # Type of FU issued
system.cpu.iq.FU_type_0::SimdDiv                    0      0.00%     76.93% # Type of FU issued
system.cpu.iq.FU_type_0::SimdSqrt                   0      0.00%     76.93% # Type of FU issued
system.cpu.iq.FU_type_0::SimdFloatAdd               8      0.00%     76.93% # Type of FU issued
system.cpu.iq.FU_type_0::SimdFloatAlu               0      0.00%     76.93% # Type of FU issued
system.cpu.iq.FU_type_0::SimdFloatCmp               2      0.00%     76.93% # Type of FU issued
system.cpu.iq.FU_type_0::SimdFloatCvt             101      0.00%     76.93% # Type of FU issued
system.cpu.iq.FU_type_0::SimdFloatDiv               1      0.00%     76.93% # Type of FU issued
system.cpu.iq.FU_type_0::SimdFloatMisc              0      0.00%     76.93% # Type of FU issued
system.cpu.iq.FU_type_0::SimdFloatMult             48      0.00%     76.93% # Type of FU issued
system.cpu.iq.FU_type_0::SimdFloatMultAcc            0      0.00%     76.93% # Type of FU issued
system.cpu.iq.FU_type_0::SimdFloatSqrt              0      0.00%     76.93% # Type of FU issued
system.cpu.iq.FU_type_0::SimdReduceAdd              0      0.00%     76.93% # Type of FU issued
system.cpu.iq.FU_type_0::SimdReduceAlu              0      0.00%     76.93% # Type of FU issued
system.cpu.iq.FU_type_0::SimdReduceCmp              0      0.00%     76.93% # Type of FU issued
system.cpu.iq.FU_type_0::SimdFloatReduceAdd            0      0.00%     76.93% # Type of FU issued
system.cpu.iq.FU_type_0::SimdFloatReduceCmp            0      0.00%     76.93% # Type of FU issued
system.cpu.iq.FU_type_0::SimdAes                    0      0.00%     76.93% # Type of FU issued
system.cpu.iq.FU_type_0::SimdAesMix                 0      0.00%     76.93% # Type of FU issued
system.cpu.iq.FU_type_0::SimdSha1Hash               0      0.00%     76.93% # Type of FU issued
system.cpu.iq.FU_type_0::SimdSha1Hash2              0      0.00%     76.93% # Type of FU issued
system.cpu.iq.FU_type_0::SimdSha256Hash             0      0.00%     76.93% # Type of FU issued
system.cpu.iq.FU_type_0::SimdSha256Hash2            0      0.00%     76.93% # Type of FU issued
system.cpu.iq.FU_type_0::SimdShaSigma2              0      0.00%     76.93% # Type of FU issued
system.cpu.iq.FU_type_0::SimdShaSigma3              0      0.00%     76.93% # Type of FU issued
system.cpu.iq.FU_type_0::SimdPredAlu                0      0.00%     76.93% # Type of FU issued
system.cpu.iq.FU_type_0::MemRead             38368137     14.66%     91.59% # Type of FU issued
system.cpu.iq.FU_type_0::MemWrite            19675108      7.52%     99.11% # Type of FU issued
system.cpu.iq.FU_type_0::FloatMemRead          674427      0.26%     99.37% # Type of FU issued
system.cpu.iq.FU_type_0::FloatMemWrite        1653614      0.63%    100.00% # Type of FU issued
system.cpu.iq.FU_type_0::IprAccess                  0      0.00%    100.00% # Type of FU issued
system.cpu.iq.FU_type_0::InstPrefetch               0      0.00%    100.00% # Type of FU issued
system.cpu.iq.FU_type_0::total              261680500                       # Type of FU issued
system.cpu.iq.FU_type_1::No_OpClass           3327079      1.27%      1.27% # Type of FU issued
system.cpu.iq.FU_type_1::IntAlu             196430943     75.07%     76.35% # Type of FU issued
system.cpu.iq.FU_type_1::IntMult               291932      0.11%     76.46% # Type of FU issued
system.cpu.iq.FU_type_1::IntDiv                147058      0.06%     76.51% # Type of FU issued
system.cpu.iq.FU_type_1::FloatAdd              136098      0.05%     76.57% # Type of FU issued
system.cpu.iq.FU_type_1::FloatCmp                   0      0.00%     76.57% # Type of FU issued
system.cpu.iq.FU_type_1::FloatCvt                  96      0.00%     76.57% # Type of FU issued
system.cpu.iq.FU_type_1::FloatMult                  0      0.00%     76.57% # Type of FU issued
system.cpu.iq.FU_type_1::FloatMultAcc               0      0.00%     76.57% # Type of FU issued
system.cpu.iq.FU_type_1::FloatDiv                   0      0.00%     76.57% # Type of FU issued
system.cpu.iq.FU_type_1::FloatMisc                  0      0.00%     76.57% # Type of FU issued
system.cpu.iq.FU_type_1::FloatSqrt                  0      0.00%     76.57% # Type of FU issued
system.cpu.iq.FU_type_1::SimdAdd                24172      0.01%     76.58% # Type of FU issued
system.cpu.iq.FU_type_1::SimdAddAcc                 0      0.00%     76.58% # Type of FU issued
system.cpu.iq.FU_type_1::SimdAlu               407221      0.16%     76.73% # Type of FU issued
system.cpu.iq.FU_type_1::SimdCmp                  122      0.00%     76.73% # Type of FU issued
system.cpu.iq.FU_type_1::SimdCvt               126135      0.05%     76.78% # Type of FU issued
system.cpu.iq.FU_type_1::SimdMisc              377758      0.14%     76.92% # Type of FU issued
system.cpu.iq.FU_type_1::SimdMult                   0      0.00%     76.92% # Type of FU issued
system.cpu.iq.FU_type_1::SimdMultAcc                0      0.00%     76.92% # Type of FU issued
system.cpu.iq.FU_type_1::SimdShift              11199      0.00%     76.93% # Type of FU issued
system.cpu.iq.FU_type_1::SimdShiftAcc               0      0.00%     76.93% # Type of FU issued
system.cpu.iq.FU_type_1::SimdDiv                    0      0.00%     76.93% # Type of FU issued
system.cpu.iq.FU_type_1::SimdSqrt                   0      0.00%     76.93% # Type of FU issued
system.cpu.iq.FU_type_1::SimdFloatAdd               7      0.00%     76.93% # Type of FU issued
system.cpu.iq.FU_type_1::SimdFloatAlu               0      0.00%     76.93% # Type of FU issued
system.cpu.iq.FU_type_1::SimdFloatCmp               3      0.00%     76.93% # Type of FU issued
system.cpu.iq.FU_type_1::SimdFloatCvt             103      0.00%     76.93% # Type of FU issued
system.cpu.iq.FU_type_1::SimdFloatDiv               1      0.00%     76.93% # Type of FU issued
system.cpu.iq.FU_type_1::SimdFloatMisc              0      0.00%     76.93% # Type of FU issued
system.cpu.iq.FU_type_1::SimdFloatMult             48      0.00%     76.93% # Type of FU issued
system.cpu.iq.FU_type_1::SimdFloatMultAcc            0      0.00%     76.93% # Type of FU issued
system.cpu.iq.FU_type_1::SimdFloatSqrt              0      0.00%     76.93% # Type of FU issued
system.cpu.iq.FU_type_1::SimdReduceAdd              0      0.00%     76.93% # Type of FU issued
system.cpu.iq.FU_type_1::SimdReduceAlu              0      0.00%     76.93% # Type of FU issued
system.cpu.iq.FU_type_1::SimdReduceCmp              0      0.00%     76.93% # Type of FU issued
system.cpu.iq.FU_type_1::SimdFloatReduceAdd            0      0.00%     76.93% # Type of FU issued
system.cpu.iq.FU_type_1::SimdFloatReduceCmp            0      0.00%     76.93% # Type of FU issued
system.cpu.iq.FU_type_1::SimdAes                    0      0.00%     76.93% # Type of FU issued
system.cpu.iq.FU_type_1::SimdAesMix                 0      0.00%     76.93% # Type of FU issued
system.cpu.iq.FU_type_1::SimdSha1Hash               0      0.00%     76.93% # Type of FU issued
system.cpu.iq.FU_type_1::SimdSha1Hash2              0      0.00%     76.93% # Type of FU issued
system.cpu.iq.FU_type_1::SimdSha256Hash             0      0.00%     76.93% # Type of FU issued
system.cpu.iq.FU_type_1::SimdSha256Hash2            0      0.00%     76.93% # Type of FU issued
system.cpu.iq.FU_type_1::SimdShaSigma2              0      0.00%     76.93% # Type of FU issued
system.cpu.iq.FU_type_1::SimdShaSigma3              0      0.00%     76.93% # Type of FU issued
system.cpu.iq.FU_type_1::SimdPredAlu                0      0.00%     76.93% # Type of FU issued
system.cpu.iq.FU_type_1::MemRead             38366586     14.66%     91.59% # Type of FU issued
system.cpu.iq.FU_type_1::MemWrite            19674352      7.52%     99.11% # Type of FU issued
system.cpu.iq.FU_type_1::FloatMemRead          675165      0.26%     99.37% # Type of FU issued
system.cpu.iq.FU_type_1::FloatMemWrite        1651481      0.63%    100.00% # Type of FU issued
system.cpu.iq.FU_type_1::IprAccess                  0      0.00%    100.00% # Type of FU issued
system.cpu.iq.FU_type_1::InstPrefetch               0      0.00%    100.00% # Type of FU issued
system.cpu.iq.FU_type_1::total              261647559                       # Type of FU issued
system.cpu.iq.FU_type::total                523328059      0.00%      0.00% # Type of FU issued
system.cpu.iq.fp_alu_accesses                 7506498                       # Number of floating point alu accesses
system.cpu.iq.fp_inst_queue_reads            14586936                       # Number of floating instruction queue reads
system.cpu.iq.fp_inst_queue_wakeup_accesses      5954766                       # Number of floating instruction queue wakeup accesses
system.cpu.iq.fp_inst_queue_writes            8785224                       # Number of floating instruction queue writes
system.cpu.iq.fu_busy_cnt::0                 41316661                       # FU busy when requested
system.cpu.iq.fu_busy_cnt::1                 41308681                       # FU busy when requested
system.cpu.iq.fu_busy_cnt::total             82625342                       # FU busy when requested
system.cpu.iq.fu_busy_rate::0                0.078950                       # FU busy rate (busy events/executed inst)
system.cpu.iq.fu_busy_rate::1                0.078935                       # FU busy rate (busy events/executed inst)
system.cpu.iq.fu_busy_rate::total            0.157884                       # FU busy rate (busy events/executed inst)
system.cpu.iq.fu_full::No_OpClass                   0      0.00%      0.00% # attempts to use FU when none available
system.cpu.iq.fu_full::IntAlu                36197131     43.81%     43.81% # attempts to use FU when none available
system.cpu.iq.fu_full::IntMult                  19527      0.02%     43.83% # attempts to use FU when none available
system.cpu.iq.fu_full::IntDiv                  260666      0.32%     44.15% # attempts to use FU when none available
system.cpu.iq.fu_full::FloatAdd                 19484      0.02%     44.17% # attempts to use FU when none available
system.cpu.iq.fu_full::FloatCmp                     0      0.00%     44.17% # attempts to use FU when none available
system.cpu.iq.fu_full::FloatCvt                    39      0.00%     44.17% # attempts to use FU when none available
system.cpu.iq.fu_full::FloatMult                    0      0.00%     44.17% # attempts to use FU when none available
system.cpu.iq.fu_full::FloatMultAcc                 0      0.00%     44.17% # attempts to use FU when none available
system.cpu.iq.fu_full::FloatDiv                     0      0.00%     44.17% # attempts to use FU when none available
system.cpu.iq.fu_full::FloatMisc                    0      0.00%     44.17% # attempts to use FU when none available
system.cpu.iq.fu_full::FloatSqrt                    0      0.00%     44.17% # attempts to use FU when none available
system.cpu.iq.fu_full::SimdAdd                   6001      0.01%     44.18% # attempts to use FU when none available
system.cpu.iq.fu_full::SimdAddAcc                   0      0.00%     44.18% # attempts to use FU when none available
system.cpu.iq.fu_full::SimdAlu                 169342      0.20%     44.38% # attempts to use FU when none available
system.cpu.iq.fu_full::SimdCmp                     50      0.00%     44.38% # attempts to use FU when none available
system.cpu.iq.fu_full::SimdCvt                  15829      0.02%     44.40% # attempts to use FU when none available
system.cpu.iq.fu_full::SimdMisc                 33652      0.04%     44.44% # attempts to use FU when none available
system.cpu.iq.fu_full::SimdMult                     0      0.00%     44.44% # attempts to use FU when none available
system.cpu.iq.fu_full::SimdMultAcc                  0      0.00%     44.44% # attempts to use FU when none available
system.cpu.iq.fu_full::SimdShift                 5083      0.01%     44.45% # attempts to use FU when none available
system.cpu.iq.fu_full::SimdShiftAcc                 0      0.00%     44.45% # attempts to use FU when none available
system.cpu.iq.fu_full::SimdDiv                      0      0.00%     44.45% # attempts to use FU when none available
system.cpu.iq.fu_full::SimdSqrt                     0      0.00%     44.45% # attempts to use FU when none available
system.cpu.iq.fu_full::SimdFloatAdd                 0      0.00%     44.45% # attempts to use FU when none available
system.cpu.iq.fu_full::SimdFloatAlu                 0      0.00%     44.45% # attempts to use FU when none available
system.cpu.iq.fu_full::SimdFloatCmp                 0      0.00%     44.45% # attempts to use FU when none available
system.cpu.iq.fu_full::SimdFloatCvt                 0      0.00%     44.45% # attempts to use FU when none available
system.cpu.iq.fu_full::SimdFloatDiv                 0      0.00%     44.45% # attempts to use FU when none available
system.cpu.iq.fu_full::SimdFloatMisc                0      0.00%     44.45% # attempts to use FU when none available
system.cpu.iq.fu_full::SimdFloatMult                0      0.00%     44.45% # attempts to use FU when none available
system.cpu.iq.fu_full::SimdFloatMultAcc             0      0.00%     44.45% # attempts to use FU when none available
system.cpu.iq.fu_full::SimdFloatSqrt                0      0.00%     44.45% # attempts to use FU when none available
system.cpu.iq.fu_full::SimdReduceAdd                0      0.00%     44.45% # attempts to use FU when none available
system.cpu.iq.fu_full::SimdReduceAlu                0      0.00%     44.45% # attempts to use FU when none available
system.cpu.iq.fu_full::SimdReduceCmp                0      0.00%     44.45% # attempts to use FU when none available
system.cpu.iq.fu_full::SimdFloatReduceAdd            0      0.00%     44.45% # attempts to use FU when none available
system.cpu.iq.fu_full::SimdFloatReduceCmp            0      0.00%     44.45% # attempts to use FU when none available
system.cpu.iq.fu_full::SimdAes                      0      0.00%     44.45% # attempts to use FU when none available
system.cpu.iq.fu_full::SimdAesMix                   0      0.00%     44.45% # attempts to use FU when none available
system.cpu.iq.fu_full::SimdSha1Hash                 0      0.00%     44.45% # attempts to use FU when none available
system.cpu.iq.fu_full::SimdSha1Hash2                0      0.00%     44.45% # attempts to use FU when none available
system.cpu.iq.fu_full::SimdSha256Hash               0      0.00%     44.45% # attempts to use FU when none available
system.cpu.iq.fu_full::SimdSha256Hash2              0      0.00%     44.45% # attempts to use FU when none available
system.cpu.iq.fu_full::SimdShaSigma2                0      0.00%     44.45% # attempts to use FU when none available
system.cpu.iq.fu_full::SimdShaSigma3                0      0.00%     44.45% # attempts to use FU when none available
system.cpu.iq.fu_full::SimdPredAlu                  0      0.00%     44.45% # attempts to use FU when none available
system.cpu.iq.fu_full::MemRead               32945315     39.87%     84.32% # attempts to use FU when none available
system.cpu.iq.fu_full::MemWrite              12953223     15.68%    100.00% # attempts to use FU when none available
system.cpu.iq.fu_full::FloatMemRead                 0      0.00%    100.00% # attempts to use FU when none available
system.cpu.iq.fu_full::FloatMemWrite                0      0.00%    100.00% # attempts to use FU when none available
system.cpu.iq.fu_full::IprAccess                    0      0.00%    100.00% # attempts to use FU when none available
system.cpu.iq.fu_full::InstPrefetch                 0      0.00%    100.00% # attempts to use FU when none available
system.cpu.iq.int_alu_accesses              674274526                       # Number of integer alu accesses
system.cpu.iq.int_inst_queue_reads         1466880005                       # Number of integer instruction queue reads
system.cpu.iq.int_inst_queue_wakeup_accesses    496827111                       # Number of integer instruction queue wakeup accesses
system.cpu.iq.int_inst_queue_writes         699131678                       # Number of integer instruction queue writes
system.cpu.iq.iqInstsAdded                  555100102                       # Number of instructions added to the IQ (excludes non-spec)
system.cpu.iq.iqInstsIssued                 523328059                       # Number of instructions issued
system.cpu.iq.iqNonSpecInstsAdded               23295                       # Number of non-speculative instructions added to the IQ
system.cpu.iq.iqSquashedInstsExamined       152746361                       # Number of squashed instructions iterated over during squash; mainly for profiling
system.cpu.iq.iqSquashedInstsIssued           3767213                       # Number of squashed instructions issued
system.cpu.iq.iqSquashedNonSpecRemoved           9615                       # Number of squashed non-spec instructions that were removed
system.cpu.iq.iqSquashedOperandsExamined    173411564                       # Number of squashed operands that are examined and possibly removed from graph
system.cpu.iq.issued_per_cycle::samples     265944026                       # Number of insts issued each cycle
system.cpu.iq.issued_per_cycle::mean         1.967813                       # Number of insts issued each cycle
system.cpu.iq.issued_per_cycle::stdev        1.917571                       # Number of insts issued each cycle
system.cpu.iq.issued_per_cycle::underflows            0      0.00%      0.00% # Number of insts issued each cycle
system.cpu.iq.issued_per_cycle::0            98926932     37.20%     37.20% # Number of insts issued each cycle
system.cpu.iq.issued_per_cycle::1            30247196     11.37%     48.57% # Number of insts issued each cycle
system.cpu.iq.issued_per_cycle::2            32156565     12.09%     60.66% # Number of insts issued each cycle
system.cpu.iq.issued_per_cycle::3            32119521     12.08%     72.74% # Number of insts issued each cycle
system.cpu.iq.issued_per_cycle::4            37895176     14.25%     86.99% # Number of insts issued each cycle
system.cpu.iq.issued_per_cycle::5            27726216     10.43%     97.42% # Number of insts issued each cycle
system.cpu.iq.issued_per_cycle::6             6088299      2.29%     99.71% # Number of insts issued each cycle
system.cpu.iq.issued_per_cycle::7              605376      0.23%     99.93% # Number of insts issued each cycle
system.cpu.iq.issued_per_cycle::8              178745      0.07%    100.00% # Number of insts issued each cycle
system.cpu.iq.issued_per_cycle::overflows            0      0.00%    100.00% # Number of insts issued each cycle
system.cpu.iq.issued_per_cycle::min_value            0                       # Number of insts issued each cycle
system.cpu.iq.issued_per_cycle::max_value            8                       # Number of insts issued each cycle
system.cpu.iq.issued_per_cycle::total       265944026                       # Number of insts issued each cycle
system.cpu.iq.rate                           1.940963                       # Inst issue rate
system.cpu.iq.vec_alu_accesses                      0                       # Number of vector alu accesses
system.cpu.iq.vec_inst_queue_reads                  0                       # Number of vector instruction queue reads
system.cpu.iq.vec_inst_queue_wakeup_accesses            0                       # Number of vector instruction queue wakeup accesses
system.cpu.iq.vec_inst_queue_writes                 0                       # Number of vector instruction queue writes
system.cpu.memDep0.conflictingLoads            888281                       # Number of conflicting loads.
system.cpu.memDep0.conflictingStores          1429941                       # Number of conflicting stores.
system.cpu.memDep0.insertedLoads             38449316                       # Number of loads inserted to the mem dependence unit.
system.cpu.memDep0.insertedStores            21985388                       # Number of stores inserted to the mem dependence unit.
system.cpu.memDep1.conflictingLoads            888118                       # Number of conflicting loads.
system.cpu.memDep1.conflictingStores          1426587                       # Number of conflicting stores.
system.cpu.memDep1.insertedLoads             38467434                       # Number of loads inserted to the mem dependence unit.
system.cpu.memDep1.insertedStores            22000582                       # Number of stores inserted to the mem dependence unit.
system.cpu.misc_regfile_reads               226040535                       # number of misc regfile reads
system.cpu.misc_regfile_writes                    108                       # number of misc regfile writes
system.cpu.numCycles                        269622892                       # number of cpu cycles simulated
system.cpu.numWorkItemsCompleted                    0                       # number of work items this cpu completed
system.cpu.numWorkItemsStarted                      0                       # number of work items this cpu started
system.cpu.timesIdled                          696577                       # Number of times that the entire CPU went into an idle state and unscheduled itself
system.cpu.workload0.numSyscalls                  112                       # Number of system calls
system.cpu.workload1.numSyscalls                  112                       # Number of system calls
system.membus.snoop_filter.hit_multi_requests            0                       # Number of requests hitting in the snoop filter with multiple (>1) holders of the requested data.
system.membus.snoop_filter.hit_multi_snoops            0                       # Number of snoops hitting in the snoop filter with multiple (>1) holders of the requested data.
system.membus.snoop_filter.hit_single_requests       237573                       # Number of requests hitting in the snoop filter with a single holder of the requested data.
system.membus.snoop_filter.hit_single_snoops            0                       # Number of snoops hitting in the snoop filter with a single holder of the requested data.
system.membus.snoop_filter.tot_requests        540679                       # Total number of requests made to the snoop filter.
system.membus.snoop_filter.tot_snoops               0                       # Total number of snoops made to the snoop filter.
system.tol2bus.snoop_filter.hit_multi_requests       121806                       # Number of requests hitting in the snoop filter with multiple (>1) holders of the requested data.
system.tol2bus.snoop_filter.hit_multi_snoops           11                       # Number of snoops hitting in the snoop filter with multiple (>1) holders of the requested data.
system.tol2bus.snoop_filter.hit_single_requests     17187978                       # Number of requests hitting in the snoop filter with a single holder of the requested data.
system.tol2bus.snoop_filter.hit_single_snoops         2614                       # Number of snoops hitting in the snoop filter with a single holder of the requested data.
system.tol2bus.snoop_filter.tot_requests     34376768                       # Total number of requests made to the snoop filter.
system.tol2bus.snoop_filter.tot_snoops           2625                       # Total number of snoops made to the snoop filter.
sim_insts                                   199999990                       # Number of instructions simulated
sim_ops                                     402376956                       # Number of ops (including micro ops) simulated
host_inst_rate                                 131752                       # Simulator instruction rate (inst/s)
host_op_rate                                   265070                       # Simulator op (including micro ops) rate (op/s)
system.clk_domain.clock                          1000                       # Clock period in ticks
system.cpu.branchPred.lookups                74785843                       # Number of BP lookups
system.cpu.branchPred.condPredicted          51034988                       # Number of conditional branches predicted
system.cpu.branchPred.condIncorrect          11980247                       # Number of conditional branches incorrect
system.cpu.branchPred.BTBLookups             36556733                       # Number of BTB lookups
system.cpu.branchPred.BTBHits                15975362                       # Number of BTB hits
system.cpu.branchPred.BTBHitPct             43.700191                       # BTB Hit Percentage
system.cpu.branchPred.RASUsed                 5910049                       # Number of times the RAS was used to get a target.
system.cpu.branchPred.RASIncorrect              87417                       # Number of incorrect RAS predictions.
system.cpu.branchPred.indirectLookups         2749238                       # Number of indirect predictor lookups.
system.cpu.branchPred.indirectHits            1313238                       # Number of indirect target hits.
system.cpu.branchPred.indirectMisses          1436000                       # Number of indirect misses.
system.cpu.branchPred.indirectMispredicted       533129                       # Number of mispredicted indirect branches.
system.cpu.branchPred.power_state.pwrStateResidencyTicks::UNDEFINED 134811445500                       # Cumulative time (in ticks) in various power states
system.cpu.commit.commitSquashedInsts       143977843                       # The number of squashed insts skipped by commit
system.cpu.commit.commitNonSpecStalls           13680                       # The number of times commit has been forced to stall to communicate backwards
system.cpu.commit.branchMispredicts           6382993                       # The number of times a branch was mispredicted
system.cpu.commit.numCommittedDist::samples    265039957                       # Number of insts commited each cycle
system.cpu.commit.numCommittedDist::mean     1.518175                       # Number of insts commited each cycle
system.cpu.commit.numCommittedDist::stdev     2.447783                       # Number of insts commited each cycle
system.cpu.commit.numCommittedDist::underflows            0      0.00%      0.00% # Number of insts commited each cycle
system.cpu.commit.numCommittedDist::0       157766348     59.53%     59.53% # Number of insts commited each cycle
system.cpu.commit.numCommittedDist::1        25389265      9.58%     69.10% # Number of insts commited each cycle
system.cpu.commit.numCommittedDist::2        16991910      6.41%     75.52% # Number of insts commited each cycle
system.cpu.commit.numCommittedDist::3        21932137      8.28%     83.79% # Number of insts commited each cycle
system.cpu.commit.numCommittedDist::4         9382045      3.54%     87.33% # Number of insts commited each cycle
system.cpu.commit.numCommittedDist::5         5727403      2.16%     89.49% # Number of insts commited each cycle
system.cpu.commit.numCommittedDist::6         4436495      1.67%     91.17% # Number of insts commited each cycle
system.cpu.commit.numCommittedDist::7         2891537      1.09%     92.26% # Number of insts commited each cycle
system.cpu.commit.numCommittedDist::8        20522817      7.74%    100.00% # Number of insts commited each cycle
system.cpu.commit.numCommittedDist::overflows            0      0.00%    100.00% # Number of insts commited each cycle
system.cpu.commit.numCommittedDist::min_value            0                       # Number of insts commited each cycle
system.cpu.commit.numCommittedDist::max_value            8                       # Number of insts commited each cycle
system.cpu.commit.numCommittedDist::total    265039957                       # Number of insts commited each cycle
system.cpu.commit.instsCommitted::0          99999987                       # Number of instructions committed
system.cpu.commit.instsCommitted::1         100000003                       # Number of instructions committed
system.cpu.commit.instsCommitted::total     199999990                       # Number of instructions committed
system.cpu.commit.opsCommitted::0           201188458                       # Number of ops (including micro ops) committed
system.cpu.commit.opsCommitted::1           201188498                       # Number of ops (including micro ops) committed
system.cpu.commit.opsCommitted::total       402376956                       # Number of ops (including micro ops) committed
system.cpu.commit.memRefs::0                 44575061                       # Number of memory references committed
system.cpu.commit.memRefs::1                 44575073                       # Number of memory references committed
system.cpu.commit.memRefs::total             89150134                       # Number of memory references committed
system.cpu.commit.loads::0                   27928683                       # Number of loads committed
system.cpu.commit.loads::1                   27928694                       # Number of loads committed
system.cpu.commit.loads::total               55857377                       # Number of loads committed
system.cpu.commit.amos::0                           0                       # Number of atomic instructions committed
system.cpu.commit.amos::1                           0                       # Number of atomic instructions committed
system.cpu.commit.amos::total                       0                       # Number of atomic instructions committed
system.cpu.commit.membars::0                     4524                       # Number of memory barriers committed
system.cpu.commit.membars::1                     4524                       # Number of memory barriers committed
system.cpu.commit.membars::total                 9048                       # Number of memory barriers committed
system.cpu.commit.branches::0                20827602                       # Number of branches committed
system.cpu.commit.branches::1                20827605                       # Number of branches committed
system.cpu.commit.branches::total            41655207                       # Number of branches committed
system.cpu.commit.vector::0                         0                       # Number of committed Vector instructions.
system.cpu.commit.vector::1                         0                       # Number of committed Vector instructions.
system.cpu.commit.vector::total                     0                       # Number of committed Vector instructions.
system.cpu.commit.floating::0                 2392471                       # Number of committed floating point instructions.
system.cpu.commit.floating::1                 2392471                       # Number of committed floating point instructions.
system.cpu.commit.floating::total             4784942                       # Number of committed floating point instructions.
system.cpu.commit.integer::0                198193071                       # Number of committed integer instructions.
system.cpu.commit.integer::1                198193111                       # Number of committed integer instructions.
system.cpu.commit.integer::total            396386182                       # Number of committed integer instructions.
system.cpu.commit.functionCalls::0            2031968                       # Number of function calls committed.
system.cpu.commit.functionCalls::1            2031968                       # Number of function calls committed.
system.cpu.commit.functionCalls::total        4063936                       # Number of function calls committed.
system.cpu.commit.committedInstType_0::No_OpClass      2130038      1.06%      1.06% # Class of committed instruction
system.cpu.commit.committedInstType_0::IntAlu    153119440     76.11%     77.17% # Class of committed instruction
system.cpu.commit.committedInstType_0::IntMult       266857      0.13%     77.30% # Class of committed instruction
system.cpu.commit.committedInstType_0::IntDiv       142598      0.07%     77.37% # Class of committed instruction
system.cpu.commit.committedInstType_0::FloatAdd       105021      0.05%     77.42% # Class of committed instruction
system.cpu.commit.committedInstType_0::FloatCmp            0      0.00%     77.42% # Class of committed instruction
system.cpu.commit.committedInstType_0::FloatCvt           96      0.00%     77.42% # Class of committed instruction
system.cpu.commit.committedInstType_0::FloatMult            0      0.00%     77.42% # Class of committed instruction
system.cpu.commit.committedInstType_0::FloatMultAcc            0      0.00%     77.42% # Class of committed instruction
system.cpu.commit.committedInstType_0::FloatDiv            0      0.00%     77.42% # Class of committed instruction
system.cpu.commit.committedInstType_0::FloatMisc            0      0.00%     77.42% # Class of committed instruction
system.cpu.commit.committedInstType_0::FloatSqrt            0      0.00%     77.42% # Class of committed instruction
system.cpu.commit.committedInstType_0::SimdAdd        21166      0.01%     77.43% # Class of committed instruction
system.cpu.commit.committedInstType_0::SimdAddAcc            0      0.00%     77.43% # Class of committed instruction
system.cpu.commit.committedInstType_0::SimdAlu       357183      0.18%     77.61% # Class of committed instruction
system.cpu.commit.committedInstType_0::SimdCmp           98      0.00%     77.61% # Class of committed instruction
system.cpu.commit.committedInstType_0::SimdCvt       111092      0.06%     77.67% # Class of committed instruction
system.cpu.commit.committedInstType_0::SimdMisc       349867      0.17%     77.84% # Class of committed instruction
system.cpu.commit.committedInstType_0::SimdMult            0      0.00%     77.84% # Class of committed instruction
system.cpu.commit.committedInstType_0::SimdMultAcc            0      0.00%     77.84% # Class of committed instruction
system.cpu.commit.committedInstType_0::SimdShift         9790      0.00%     77.84% # Class of committed instruction
system.cpu.commit.committedInstType_0::SimdShiftAcc            0      0.00%     77.84% # Class of committed instruction
system.cpu.commit.committedInstType_0::SimdDiv            0      0.00%     77.84% # Class of committed instruction
system.cpu.commit.committedInstType_0::SimdSqrt            0      0.00%     77.84% # Class of committed instruction
system.cpu.commit.committedInstType_0::SimdFloatAdd            5      0.00%     77.84% # Class of committed instruction
system.cpu.commit.committedInstType_0::SimdFloatAlu            0      0.00%     77.84% # Class of committed instruction
system.cpu.commit.committedInstType_0::SimdFloatCmp            2      0.00%     77.84% # Class of committed instruction
system.cpu.commit.committedInstType_0::SimdFloatCvt           95      0.00%     77.84% # Class of committed instruction
system.cpu.commit.committedInstType_0::SimdFloatDiv            1      0.00%     77.84% # Class of committed instruction
system.cpu.commit.committedInstType_0::SimdFloatMisc            0      0.00%     77.84% # Class of committed instruction
system.cpu.commit.committedInstType_0::SimdFloatMult           48      0.00%     77.84% # Class of committed instruction
system.cpu.commit.committedInstType_0::SimdFloatMultAcc            0      0.00%     77.84% # Class of committed instruction
system.cpu.commit.committedInstType_0::SimdFloatSqrt            0      0.00%     77.84% # Class of committed instruction
system.cpu.commit.committedInstType_0::SimdReduceAdd            0      0.00%     77.84% # Class of committed instruction
system.cpu.commit.committedInstType_0::SimdReduceAlu            0      0.00%     77.84% # Class of committed instruction
system.cpu.commit.committedInstType_0::SimdReduceCmp            0      0.00%     77.84% # Class of committed instruction
system.cpu.commit.committedInstType_0::SimdFloatReduceAdd            0      0.00%     77.84% # Class of committed instruction
system.cpu.commit.committedInstType_0::SimdFloatReduceCmp            0      0.00%     77.84% # Class of committed instruction
system.cpu.commit.committedInstType_0::SimdAes            0      0.00%     77.84% # Class of committed instruction
system.cpu.commit.committedInstType_0::SimdAesMix            0      0.00%     77.84% # Class of committed instruction
system.cpu.commit.committedInstType_0::SimdSha1Hash            0      0.00%     77.84% # Class of committed instruction
system.cpu.commit.committedInstType_0::SimdSha1Hash2            0      0.00%     77.84% # Class of committed instruction
system.cpu.commit.committedInstType_0::SimdSha256Hash            0      0.00%     77.84% # Class of committed instruction
system.cpu.commit.committedInstType_0::SimdSha256Hash2            0      0.00%     77.84% # Class of committed instruction
system.cpu.commit.committedInstType_0::SimdShaSigma2            0      0.00%     77.84% # Class of committed instruction
system.cpu.commit.committedInstType_0::SimdShaSigma3            0      0.00%     77.84% # Class of committed instruction
system.cpu.commit.committedInstType_0::SimdPredAlu            0      0.00%     77.84% # Class of committed instruction
system.cpu.commit.committedInstType_0::MemRead     27516476     13.68%     91.52% # Class of committed instruction
system.cpu.commit.committedInstType_0::MemWrite     15695556      7.80%     99.32% # Class of committed instruction
system.cpu.commit.committedInstType_0::FloatMemRead       412207      0.20%     99.53% # Class of committed instruction
system.cpu.commit.committedInstType_0::FloatMemWrite       950822      0.47%    100.00% # Class of committed instruction
system.cpu.commit.committedInstType_0::IprAccess            0      0.00%    100.00% # Class of committed instruction
system.cpu.commit.committedInstType_0::InstPrefetch            0      0.00%    100.00% # Class of committed instruction
system.cpu.commit.committedInstType_0::total    201188458                       # Class of committed instruction
system.cpu.commit.committedInstType_1::No_OpClass      2130038      1.06%      1.06% # Class of committed instruction
system.cpu.commit.committedInstType_1::IntAlu    153119468     76.11%     77.17% # Class of committed instruction
system.cpu.commit.committedInstType_1::IntMult       266857      0.13%     77.30% # Class of committed instruction
system.cpu.commit.committedInstType_1::IntDiv       142598      0.07%     77.37% # Class of committed instruction
system.cpu.commit.committedInstType_1::FloatAdd       105021      0.05%     77.42% # Class of committed instruction
system.cpu.commit.committedInstType_1::FloatCmp            0      0.00%     77.42% # Class of committed instruction
system.cpu.commit.committedInstType_1::FloatCvt           96      0.00%     77.42% # Class of committed instruction
system.cpu.commit.committedInstType_1::FloatMult            0      0.00%     77.42% # Class of committed instruction
system.cpu.commit.committedInstType_1::FloatMultAcc            0      0.00%     77.42% # Class of committed instruction
system.cpu.commit.committedInstType_1::FloatDiv            0      0.00%     77.42% # Class of committed instruction
system.cpu.commit.committedInstType_1::FloatMisc            0      0.00%     77.42% # Class of committed instruction
system.cpu.commit.committedInstType_1::FloatSqrt            0      0.00%     77.42% # Class of committed instruction
system.cpu.commit.committedInstType_1::SimdAdd        21166      0.01%     77.43% # Class of committed instruction
system.cpu.commit.committedInstType_1::SimdAddAcc            0      0.00%     77.43% # Class of committed instruction
system.cpu.commit.committedInstType_1::SimdAlu       357183      0.18%     77.61% # Class of committed instruction
system.cpu.commit.committedInstType_1::SimdCmp           98      0.00%     77.61% # Class of committed instruction
system.cpu.commit.committedInstType_1::SimdCvt       111092      0.06%     77.67% # Class of committed instruction
system.cpu.commit.committedInstType_1::SimdMisc       349867      0.17%     77.84% # Class of committed instruction
system.cpu.commit.committedInstType_1::SimdMult            0      0.00%     77.84% # Class of committed instruction
system.cpu.commit.committedInstType_1::SimdMultAcc            0      0.00%     77.84% # Class of committed instruction
system.cpu.commit.committedInstType_1::SimdShift         9790      0.00%     77.84% # Class of committed instruction
system.cpu.commit.committedInstType_1::SimdShiftAcc            0      0.00%     77.84% # Class of committed instruction
system.cpu.commit.committedInstType_1::SimdDiv            0      0.00%     77.84% # Class of committed instruction
system.cpu.commit.committedInstType_1::SimdSqrt            0      0.00%     77.84% # Class of committed instruction
system.cpu.commit.committedInstType_1::SimdFloatAdd            5      0.00%     77.84% # Class of committed instruction
system.cpu.commit.committedInstType_1::SimdFloatAlu            0      0.00%     77.84% # Class of committed instruction
system.cpu.commit.committedInstType_1::SimdFloatCmp            2      0.00%     77.84% # Class of committed instruction
system.cpu.commit.committedInstType_1::SimdFloatCvt           95      0.00%     77.84% # Class of committed instruction
system.cpu.commit.committedInstType_1::SimdFloatDiv            1      0.00%     77.84% # Class of committed instruction
system.cpu.commit.committedInstType_1::SimdFloatMisc            0      0.00%     77.84% # Class of committed instruction
system.cpu.commit.committedInstType_1::SimdFloatMult           48      0.00%     77.84% # Class of committed instruction
system.cpu.commit.committedInstType_1::SimdFloatMultAcc            0      0.00%     77.84% # Class of committed instruction
system.cpu.commit.committedInstType_1::SimdFloatSqrt            0      0.00%     77.84% # Class of committed instruction
system.cpu.commit.committedInstType_1::SimdReduceAdd            0      0.00%     77.84% # Class of committed instruction
system.cpu.commit.committedInstType_1::SimdReduceAlu            0      0.00%     77.84% # Class of committed instruction
system.cpu.commit.committedInstType_1::SimdReduceCmp            0      0.00%     77.84% # Class of committed instruction
system.cpu.commit.committedInstType_1::SimdFloatReduceAdd            0      0.00%     77.84% # Class of committed instruction
system.cpu.commit.committedInstType_1::SimdFloatReduceCmp            0      0.00%     77.84% # Class of committed instruction
system.cpu.commit.committedInstType_1::SimdAes            0      0.00%     77.84% # Class of committed instruction
system.cpu.commit.committedInstType_1::SimdAesMix            0      0.00%     77.84% # Class of committed instruction
system.cpu.commit.committedInstType_1::SimdSha1Hash            0      0.00%     77.84% # Class of committed instruction
system.cpu.commit.committedInstType_1::SimdSha1Hash2            0      0.00%     77.84% # Class of committed instruction
system.cpu.commit.committedInstType_1::SimdSha256Hash            0      0.00%     77.84% # Class of committed instruction
system.cpu.commit.committedInstType_1::SimdSha256Hash2            0      0.00%     77.84% # Class of committed instruction
system.cpu.commit.committedInstType_1::SimdShaSigma2            0      0.00%     77.84% # Class of committed instruction
system.cpu.commit.committedInstType_1::SimdShaSigma3            0      0.00%     77.84% # Class of committed instruction
system.cpu.commit.committedInstType_1::SimdPredAlu            0      0.00%     77.84% # Class of committed instruction
system.cpu.commit.committedInstType_1::MemRead     27516487     13.68%     91.52% # Class of committed instruction
system.cpu.commit.committedInstType_1::MemWrite     15695557      7.80%     99.32% # Class of committed instruction
system.cpu.commit.committedInstType_1::FloatMemRead       412207      0.20%     99.53% # Class of committed instruction
system.cpu.commit.committedInstType_1::FloatMemWrite       950822      0.47%    100.00% # Class of committed instruction
system.cpu.commit.committedInstType_1::IprAccess            0      0.00%    100.00% # Class of committed instruction
system.cpu.commit.committedInstType_1::InstPrefetch            0      0.00%    100.00% # Class of committed instruction
system.cpu.commit.committedInstType_1::total    201188498                       # Class of committed instruction
system.cpu.commit.committedInstType::total    402376956      0.00%      0.00% # Class of committed instruction
system.cpu.commit.commitEligibleSamples      20522817                       # number cycles where commit BW limit reached
system.cpu.dcache.demand_hits::.cpu.data     89542161                       # number of demand (read+write) hits
system.cpu.dcache.demand_hits::total         89542161                       # number of demand (read+write) hits
system.cpu.dcache.overall_hits::.cpu.data     89542161                       # number of overall hits
system.cpu.dcache.overall_hits::total        89542161                       # number of overall hits
system.cpu.dcache.demand_misses::.cpu.data      7955669                       # number of demand (read+write) misses
system.cpu.dcache.demand_misses::total        7955669                       # number of demand (read+write) misses
system.cpu.dcache.overall_misses::.cpu.data      7955669                       # number of overall misses
system.cpu.dcache.overall_misses::total       7955669                       # number of overall misses
system.cpu.dcache.demand_miss_latency::.cpu.data 114487269000                       # number of demand (read+write) miss cycles
system.cpu.dcache.demand_miss_latency::total 114487269000                       # number of demand (read+write) miss cycles
system.cpu.dcache.overall_miss_latency::.cpu.data 114487269000                       # number of overall miss cycles
system.cpu.dcache.overall_miss_latency::total 114487269000                       # number of overall miss cycles
system.cpu.dcache.demand_accesses::.cpu.data     97497830                       # number of demand (read+write) accesses
system.cpu.dcache.demand_accesses::total     97497830                       # number of demand (read+write) accesses
system.cpu.dcache.overall_accesses::.cpu.data     97497830                       # number of overall (read+write) accesses
system.cpu.dcache.overall_accesses::total     97497830                       # number of overall (read+write) accesses
system.cpu.dcache.demand_miss_rate::.cpu.data     0.081598                       # miss rate for demand accesses
system.cpu.dcache.demand_miss_rate::total     0.081598                       # miss rate for demand accesses
system.cpu.dcache.overall_miss_rate::.cpu.data     0.081598                       # miss rate for overall accesses
system.cpu.dcache.overall_miss_rate::total     0.081598                       # miss rate for overall accesses
system.cpu.dcache.demand_avg_miss_latency::.cpu.data 14390.652628                       # average overall miss latency
system.cpu.dcache.demand_avg_miss_latency::total 14390.652628                       # average overall miss latency
system.cpu.dcache.overall_avg_miss_latency::.cpu.data 14390.652628                       # average overall miss latency
system.cpu.dcache.overall_avg_miss_latency::total 14390.652628                       # average overall miss latency
system.cpu.dcache.blocked_cycles::no_mshrs           63                       # number of cycles access was blocked
system.cpu.dcache.blocked_cycles::no_targets      1765743                       # number of cycles access was blocked
system.cpu.dcache.blocked::no_mshrs                25                       # number of cycles access was blocked
system.cpu.dcache.blocked::no_targets           22015                       # number of cycles access was blocked
system.cpu.dcache.avg_blocked_cycles::no_mshrs     2.520000                       # average number of cycles each access was blocked
system.cpu.dcache.avg_blocked_cycles::no_targets    80.206359                       # average number of cycles each access was blocked
system.cpu.dcache.writebacks::.writebacks      5588997                       # number of writebacks
system.cpu.dcache.writebacks::total           5588997                       # number of writebacks
system.cpu.dcache.demand_mshr_hits::.cpu.data      2366313                       # number of demand (read+write) MSHR hits
system.cpu.dcache.demand_mshr_hits::total      2366313                       # number of demand (read+write) MSHR hits
system.cpu.dcache.overall_mshr_hits::.cpu.data      2366313                       # number of overall MSHR hits
system.cpu.dcache.overall_mshr_hits::total      2366313                       # number of overall MSHR hits
system.cpu.dcache.demand_mshr_misses::.cpu.data      5589356                       # number of demand (read+write) MSHR misses
system.cpu.dcache.demand_mshr_misses::total      5589356                       # number of demand (read+write) MSHR misses
system.cpu.dcache.overall_mshr_misses::.cpu.data      5589356                       # number of overall MSHR misses
system.cpu.dcache.overall_mshr_misses::total      5589356                       # number of overall MSHR misses
system.cpu.dcache.demand_mshr_miss_latency::.cpu.data  72648402514                       # number of demand (read+write) MSHR miss cycles
system.cpu.dcache.demand_mshr_miss_latency::total  72648402514                       # number of demand (read+write) MSHR miss cycles
system.cpu.dcache.overall_mshr_miss_latency::.cpu.data  72648402514                       # number of overall MSHR miss cycles
system.cpu.dcache.overall_mshr_miss_latency::total  72648402514                       # number of overall MSHR miss cycles
system.cpu.dcache.demand_mshr_miss_rate::.cpu.data     0.057328                       # mshr miss rate for demand accesses
system.cpu.dcache.demand_mshr_miss_rate::total     0.057328                       # mshr miss rate for demand accesses
system.cpu.dcache.overall_mshr_miss_rate::.cpu.data     0.057328                       # mshr miss rate for overall accesses
system.cpu.dcache.overall_mshr_miss_rate::total     0.057328                       # mshr miss rate for overall accesses
system.cpu.dcache.demand_avg_mshr_miss_latency::.cpu.data 12997.633809                       # average overall mshr miss latency
system.cpu.dcache.demand_avg_mshr_miss_latency::total 12997.633809                       # average overall mshr miss latency
system.cpu.dcache.overall_avg_mshr_miss_latency::.cpu.data 12997.633809                       # average overall mshr miss latency
system.cpu.dcache.overall_avg_mshr_miss_latency::total 12997.633809                       # average overall mshr miss latency
system.cpu.dcache.replacements                 170064                       # number of replacements
system.cpu.dcache.expired                     5418933                       # dead blocks evicted
system.cpu.dcache.ReadReq_hits::.cpu.data     57528990                       # number of ReadReq hits
system.cpu.dcache.ReadReq_hits::total        57528990                       # number of ReadReq hits
system.cpu.dcache.ReadReq_misses::.cpu.data      6675302                       # number of ReadReq misses
system.cpu.dcache.ReadReq_misses::total       6675302                       # number of ReadReq misses
system.cpu.dcache.ReadReq_miss_latency::.cpu.data  88367451500                       # number of ReadReq miss cycles
system.cpu.dcache.ReadReq_miss_latency::total  88367451500                       # number of ReadReq miss cycles
system.cpu.dcache.ReadReq_accesses::.cpu.data     64204292                       # number of ReadReq accesses(hits+misses)
system.cpu.dcache.ReadReq_accesses::total     64204292                       # number of ReadReq accesses(hits+misses)
system.cpu.dcache.ReadReq_miss_rate::.cpu.data     0.103970                       # miss rate for ReadReq accesses
system.cpu.dcache.ReadReq_miss_rate::total     0.103970                       # miss rate for ReadReq accesses
system.cpu.dcache.ReadReq_avg_miss_latency::.cpu.data 13237.970582                       # average ReadReq miss latency
system.cpu.dcache.ReadReq_avg_miss_latency::total 13237.970582                       # average ReadReq miss latency
system.cpu.dcache.ReadReq_mshr_hits::.cpu.data      2354081                       # number of ReadReq MSHR hits
system.cpu.dcache.ReadReq_mshr_hits::total      2354081                       # number of ReadReq MSHR hits
system.cpu.dcache.ReadReq_mshr_misses::.cpu.data      4321221                       # number of ReadReq MSHR misses
system.cpu.dcache.ReadReq_mshr_misses::total      4321221                       # number of ReadReq MSHR misses
system.cpu.dcache.ReadReq_mshr_miss_latency::.cpu.data  47966974500                       # number of ReadReq MSHR miss cycles
system.cpu.dcache.ReadReq_mshr_miss_latency::total  47966974500                       # number of ReadReq MSHR miss cycles
system.cpu.dcache.ReadReq_mshr_miss_rate::.cpu.data     0.067304                       # mshr miss rate for ReadReq accesses
system.cpu.dcache.ReadReq_mshr_miss_rate::total     0.067304                       # mshr miss rate for ReadReq accesses
system.cpu.dcache.ReadReq_avg_mshr_miss_latency::.cpu.data 11100.328935                       # average ReadReq mshr miss latency
system.cpu.dcache.ReadReq_avg_mshr_miss_latency::total 11100.328935                       # average ReadReq mshr miss latency
system.cpu.dcache.WriteReq_hits::.cpu.data     32013171                       # number of WriteReq hits
system.cpu.dcache.WriteReq_hits::total       32013171                       # number of WriteReq hits
system.cpu.dcache.WriteReq_misses::.cpu.data      1280367                       # number of WriteReq misses
system.cpu.dcache.WriteReq_misses::total      1280367                       # number of WriteReq misses
system.cpu.dcache.WriteReq_miss_latency::.cpu.data  26119817500                       # number of WriteReq miss cycles
system.cpu.dcache.WriteReq_miss_latency::total  26119817500                       # number of WriteReq miss cycles
system.cpu.dcache.WriteReq_accesses::.cpu.data     33293538                       # number of WriteReq accesses(hits+misses)
system.cpu.dcache.WriteReq_accesses::total     33293538                       # number of WriteReq accesses(hits+misses)
system.cpu.dcache.WriteReq_miss_rate::.cpu.data     0.038457                       # miss rate for WriteReq accesses
system.cpu.dcache.WriteReq_miss_rate::total     0.038457                       # miss rate for WriteReq accesses
system.cpu.dcache.WriteReq_avg_miss_latency::.cpu.data 20400.258285                       # average WriteReq miss latency
system.cpu.dcache.WriteReq_avg_miss_latency::total 20400.258285                       # average WriteReq miss latency
system.cpu.dcache.WriteReq_mshr_hits::.cpu.data        12232                       # number of WriteReq MSHR hits
system.cpu.dcache.WriteReq_mshr_hits::total        12232                       # number of WriteReq MSHR hits
system.cpu.dcache.WriteReq_mshr_misses::.cpu.data      1268135                       # number of WriteReq MSHR misses
system.cpu.dcache.WriteReq_mshr_misses::total      1268135                       # number of WriteReq MSHR misses
system.cpu.dcache.WriteReq_mshr_miss_latency::.cpu.data  24681428014                       # number of WriteReq MSHR miss cycles
system.cpu.dcache.WriteReq_mshr_miss_latency::total  24681428014                       # number of WriteReq MSHR miss cycles
system.cpu.dcache.WriteReq_mshr_miss_rate::.cpu.data     0.038090                       # mshr miss rate for WriteReq accesses
system.cpu.dcache.WriteReq_mshr_miss_rate::total     0.038090                       # mshr miss rate for WriteReq accesses
system.cpu.dcache.WriteReq_avg_mshr_miss_latency::.cpu.data 19462.776450                       # average WriteReq mshr miss latency
system.cpu.dcache.WriteReq_avg_mshr_miss_latency::total 19462.776450                       # average WriteReq mshr miss latency
system.cpu.dcache.power_state.pwrStateResidencyTicks::UNDEFINED 134811445500                       # Cumulative time (in ticks) in various power states
system.cpu.dcache.tags.tagsinuse           219.441094                       # Cycle average of tags in use
system.cpu.dcache.tags.total_refs            95131522                       # Total number of references to valid blocks.
system.cpu.dcache.tags.sampled_refs           5589193                       # Sample count of references to valid blocks.
system.cpu.dcache.tags.avg_refs             17.020619                       # Average number of references to valid blocks.
system.cpu.dcache.tags.warmup_cycle            190500                       # Cycle when the warmup percentage was hit.
system.cpu.dcache.tags.occ_blocks::.cpu.data   219.441094                       # Average occupied blocks per requestor
system.cpu.dcache.tags.occ_percent::.cpu.data     0.428596                       # Average percentage of cache occupancy
system.cpu.dcache.tags.occ_percent::total     0.428596                       # Average percentage of cache occupancy
system.cpu.dcache.tags.occ_task_id_blocks::1024          196                       # Occupied blocks per task id
system.cpu.dcache.tags.age_task_id_blocks_1024::0          178                       # Occupied blocks per task id
system.cpu.dcache.tags.age_task_id_blocks_1024::1           16                       # Occupied blocks per task id
system.cpu.dcache.tags.age_task_id_blocks_1024::3            2                       # Occupied blocks per task id
system.cpu.dcache.tags.occ_task_id_percent::1024     0.382812                       # Percentage of cache occupancy per task id
system.cpu.dcache.tags.tag_accesses         785571833                       # Number of tag accesses
system.cpu.dcache.tags.data_accesses        785571833                       # Number of data accesses
system.cpu.dcache.tags.power_state.pwrStateResidencyTicks::UNDEFINED 134811445500                       # Cumulative time (in ticks) in various power states
system.cpu.decode.idleCycles                293048762                       # Number of cycles decode is idle
system.cpu.decode.blockedCycles              61787224                       # Number of cycles decode is blocked
system.cpu.decode.runCycles                 162984991                       # Number of cycles decode is running
system.cpu.decode.unblockCycles               7637746                       # Number of cycles decode is unblocking
system.cpu.decode.squashCycles                6429329                       # Number of cycles decode is squashing
system.cpu.decode.branchResolved             19052053                       # Number of times decode resolved a  branch
system.cpu.decode.branchMispred               5698147                       # Number of times decode detected a branch misprediction
system.cpu.decode.decodedInsts              579542838                       # Number of instructions handled by decode
system.cpu.decode.squashedInsts              60679475                       # Number of squashed instructions handled by decode
system.cpu.dtb.rdAccesses                    68907558                       # TLB accesses on read requests
system.cpu.dtb.wrAccesses                    40347601                       # TLB accesses on write requests
system.cpu.dtb.rdMisses                       6266801                       # TLB misses on read requests
system.cpu.dtb.wrMisses                       1353155                       # TLB misses on write requests
system.cpu.dtb.walker.power_state.pwrStateResidencyTicks::UNDEFINED 134811445500                       # Cumulative time (in ticks) in various power states
system.cpu.dtb_walker_cache.blocked_cycles::no_mshrs            0                       # number of cycles access was blocked
system.cpu.dtb_walker_cache.blocked_cycles::no_targets            0                       # number of cycles access was blocked
system.cpu.dtb_walker_cache.blocked::no_mshrs            0                       # number of cycles access was blocked
system.cpu.dtb_walker_cache.blocked::no_targets            0                       # number of cycles access was blocked
system.cpu.dtb_walker_cache.avg_blocked_cycles::no_mshrs          nan                       # average number of cycles each access was blocked
system.cpu.dtb_walker_cache.avg_blocked_cycles::no_targets          nan                       # average number of cycles each access was blocked
system.cpu.dtb_walker_cache.replacements            0                       # number of replacements
system.cpu.dtb_walker_cache.expired                 0                       # dead blocks evicted
system.cpu.dtb_walker_cache.power_state.pwrStateResidencyTicks::UNDEFINED 134811445500                       # Cumulative time (in ticks) in various power states
system.cpu.dtb_walker_cache.tags.tagsinuse            0                       # Cycle average of tags in use
system.cpu.dtb_walker_cache.tags.total_refs            0                       # Total number of references to valid blocks.
system.cpu.dtb_walker_cache.tags.sampled_refs            0                       # Sample count of references to valid blocks.
system.cpu.dtb_walker_cache.tags.avg_refs          nan                       # Average number of references to valid blocks.
system.cpu.dtb_walker_cache.tags.warmup_cycle            0                       # Cycle when the warmup percentage was hit.
system.cpu.dtb_walker_cache.tags.tag_accesses            0                       # Number of tag accesses
system.cpu.dtb_walker_cache.tags.data_accesses            0                       # Number of data accesses
system.cpu.dtb_walker_cache.tags.power_state.pwrStateResidencyTicks::UNDEFINED 134811445500                       # Cumulative time (in ticks) in various power states
system.cpu.fetch.icacheStallCycles            9241903                       # Number of cycles fetch is stalled on an Icache miss
system.cpu.fetch.insts                      348178347                       # Number of instructions fetch has processed
system.cpu.fetch.branches                    74785843                       # Number of branches that fetch encountered
system.cpu.fetch.predictedBranches           23198649                       # Number of branches that fetch has predicted taken
system.cpu.fetch.cycles                     158655977                       # Number of cycles fetch has run and was not squashing or blocked
system.cpu.fetch.squashCycles                12031041                       # Number of cycles fetch has spent squashing
system.cpu.fetch.tlbCycles                    2123688                       # Number of cycles fetch has spent waiting for tlb
system.cpu.fetch.miscStallCycles                  428                       # Number of cycles fetch has spent waiting on interrupts,or bad addresses, or out of MSHRs
system.cpu.fetch.cacheLines                 109743187                       # Number of cache lines fetched
system.cpu.fetch.icacheSquashes               4286397                       # Number of outstanding Icache misses that were squashed
system.cpu.fetch.tlbSquashes                   948736                       # Number of outstanding ITLB misses that were squashed
system.cpu.fetch.SMTDist::samples           265944026                       # Number of Cycles each Thread Fetched
system.cpu.fetch.SMTDist::mean              -0.041121                       # Number of Cycles each Thread Fetched
system.cpu.fetch.SMTDist::stdev              0.823746                       # Number of Cycles each Thread Fetched
system.cpu.fetch.SMTDist::underflows                0      0.00%      0.00% # Number of Cycles each Thread Fetched
system.cpu.fetch.SMTDist::-1                 95922030     36.07%     36.07% # Number of Cycles each Thread Fetched
system.cpu.fetch.SMTDist::0                  85035890     31.98%     68.04% # Number of Cycles each Thread Fetched
system.cpu.fetch.SMTDist::1                  84986106     31.96%    100.00% # Number of Cycles each Thread Fetched
system.cpu.fetch.SMTDist::2                         0      0.00%    100.00% # Number of Cycles each Thread Fetched
system.cpu.fetch.SMTDist::overflows                 0      0.00%    100.00% # Number of Cycles each Thread Fetched
system.cpu.fetch.SMTDist::min_value                -1                       # Number of Cycles each Thread Fetched
system.cpu.fetch.SMTDist::max_value                 1                       # Number of Cycles each Thread Fetched
system.cpu.fetch.SMTDist::total             265944026                       # Number of Cycles each Thread Fetched
system.cpu.fetch.nisnDist::samples          265944026                       # Number of instructions fetched each cycle (Total)
system.cpu.fetch.nisnDist::mean              2.616570                       # Number of instructions fetched each cycle (Total)
system.cpu.fetch.nisnDist::stdev             3.154420                       # Number of instructions fetched each cycle (Total)
system.cpu.fetch.nisnDist::underflows               0      0.00%      0.00% # Number of instructions fetched each cycle (Total)
system.cpu.fetch.nisnDist::0                135123970     50.81%     50.81% # Number of instructions fetched each cycle (Total)
system.cpu.fetch.nisnDist::1                 12185288      4.58%     55.39% # Number of instructions fetched each cycle (Total)
system.cpu.fetch.nisnDist::2                 11011613      4.14%     59.53% # Number of instructions fetched each cycle (Total)
system.cpu.fetch.nisnDist::3                 11712175      4.40%     63.94% # Number of instructions fetched each cycle (Total)
system.cpu.fetch.nisnDist::4                 13130760      4.94%     68.87% # Number of instructions fetched each cycle (Total)
system.cpu.fetch.nisnDist::5                 15357385      5.77%     74.65% # Number of instructions fetched each cycle (Total)
system.cpu.fetch.nisnDist::6                 14464056      5.44%     80.09% # Number of instructions fetched each cycle (Total)
system.cpu.fetch.nisnDist::7                 13248350      4.98%     85.07% # Number of instructions fetched each cycle (Total)
system.cpu.fetch.nisnDist::8                 39710429     14.93%    100.00% # Number of instructions fetched each cycle (Total)
system.cpu.fetch.nisnDist::overflows                0      0.00%    100.00% # Number of instructions fetched each cycle (Total)
system.cpu.fetch.nisnDist::min_value                0                       # Number of instructions fetched each cycle (Total)
system.cpu.fetch.nisnDist::max_value                8                       # Number of instructions fetched each cycle (Total)
system.cpu.fetch.nisnDist::total            265944026                       # Number of instructions fetched each cycle (Total)
system.cpu.fetch.branchRate                  0.277372                       # Number of branch fetches per cycle
system.cpu.fetch.rate                        1.291353                       # Number of inst fetches per cycle
system.cpu.icache.demand_hits::.cpu.inst     97532848                       # number of demand (read+write) hits
system.cpu.icache.demand_hits::total         97532848                       # number of demand (read+write) hits
system.cpu.icache.overall_hits::.cpu.inst     97532848                       # number of overall hits
system.cpu.icache.overall_hits::total        97532848                       # number of overall hits
system.cpu.icache.demand_misses::.cpu.inst     12210327                       # number of demand (read+write) misses
system.cpu.icache.demand_misses::total       12210327                       # number of demand (read+write) misses
system.cpu.icache.overall_misses::.cpu.inst     12210327                       # number of overall misses
system.cpu.icache.overall_misses::total      12210327                       # number of overall misses
system.cpu.icache.demand_miss_latency::.cpu.inst 102874464499                       # number of demand (read+write) miss cycles
system.cpu.icache.demand_miss_latency::total 102874464499                       # number of demand (read+write) miss cycles
system.cpu.icache.overall_miss_latency::.cpu.inst 102874464499                       # number of overall miss cycles
system.cpu.icache.overall_miss_latency::total 102874464499                       # number of overall miss cycles
[...]
system.mem_ctrls1.dram.perBankWrBursts::6         2765                       # Per bank write bursts
system.mem_ctrls1.dram.perBankWrBursts::7         2291                       # Per bank write bursts
system.mem_ctrls1.dram.perBankWrBursts::8         2566                       # Per bank write bursts
system.mem_ctrls1.dram.perBankWrBursts::9         2944                       # Per bank write bursts
system.mem_ctrls1.dram.perBankWrBursts::10         2380                       # Per bank write bursts
system.mem_ctrls1.dram.perBankWrBursts::11         2560                       # Per bank write bursts
system.mem_ctrls1.dram.perBankWrBursts::12         2408                       # Per bank write bursts
system.mem_ctrls1.dram.perBankWrBursts::13         2213                       # Per bank write bursts
system.mem_ctrls1.dram.perBankWrBursts::14         2302                       # Per bank write bursts
system.mem_ctrls1.dram.perBankWrBursts::15         2166                       # Per bank write bursts
system.mem_ctrls1.dram.perBankWrBursts::16         2169                       # Per bank write bursts
system.mem_ctrls1.dram.perBankWrBursts::17         2340                       # Per bank write bursts
system.mem_ctrls1.dram.perBankWrBursts::18         2408                       # Per bank write bursts
system.mem_ctrls1.dram.perBankWrBursts::19         2298                       # Per bank write bursts
system.mem_ctrls1.dram.perBankWrBursts::20         2128                       # Per bank write bursts
system.mem_ctrls1.dram.perBankWrBursts::21         2035                       # Per bank write bursts
system.mem_ctrls1.dram.perBankWrBursts::22         2076                       # Per bank write bursts
system.mem_ctrls1.dram.perBankWrBursts::23         2136                       # Per bank write bursts
system.mem_ctrls1.dram.perBankWrBursts::24         2560                       # Per bank write bursts
system.mem_ctrls1.dram.perBankWrBursts::25         2806                       # Per bank write bursts
system.mem_ctrls1.dram.perBankWrBursts::26         2610                       # Per bank write bursts
system.mem_ctrls1.dram.perBankWrBursts::27         2620                       # Per bank write bursts
system.mem_ctrls1.dram.perBankWrBursts::28         2377                       # Per bank write bursts
system.mem_ctrls1.dram.perBankWrBursts::29         2483                       # Per bank write bursts
system.mem_ctrls1.dram.perBankWrBursts::30         2400                       # Per bank write bursts
system.mem_ctrls1.dram.perBankWrBursts::31         2564                       # Per bank write bursts
system.mem_ctrls1.dram.totQLat             2175588199                       # Total ticks spent queuing
system.mem_ctrls1.dram.totBusLat            501286072                       # Total ticks spent in databus transfers
system.mem_ctrls1.dram.totMemAccLat        4807189631                       # Total ticks spent from burst creation until serviced by the DRAM
system.mem_ctrls1.dram.avgQLat               14460.92                       # Average queueing delay per DRAM burst
system.mem_ctrls1.dram.avgBusLat              3332.00                       # Average bus latency per DRAM burst
system.mem_ctrls1.dram.avgMemAccLat          31952.92                       # Average memory access latency per DRAM burst
system.mem_ctrls1.dram.readRowHits              89143                       # Number of row buffer hits during reads
system.mem_ctrls1.dram.writeRowHits             23149                       # Number of row buffer hits during writes
system.mem_ctrls1.dram.readRowHitRate           59.25                       # Row buffer hit rate for reads
system.mem_ctrls1.dram.writeRowHitRate          29.31                       # Row buffer hit rate for writes
system.mem_ctrls1.dram.bytesPerActivate::samples       117131                       # Bytes accessed per row activation
system.mem_ctrls1.dram.bytesPerActivate::mean   125.355986                       # Bytes accessed per row activation
system.mem_ctrls1.dram.bytesPerActivate::gmean    97.239642                       # Bytes accessed per row activation
system.mem_ctrls1.dram.bytesPerActivate::stdev   140.575783                       # Bytes accessed per row activation
system.mem_ctrls1.dram.bytesPerActivate::0-127        68201     58.23%     58.23% # Bytes accessed per row activation
system.mem_ctrls1.dram.bytesPerActivate::128-255        37014     31.60%     89.83% # Bytes accessed per row activation
system.mem_ctrls1.dram.bytesPerActivate::256-383         6744      5.76%     95.58% # Bytes accessed per row activation
system.mem_ctrls1.dram.bytesPerActivate::384-511         1946      1.66%     97.25% # Bytes accessed per row activation
system.mem_ctrls1.dram.bytesPerActivate::512-639          656      0.56%     97.81% # Bytes accessed per row activation
system.mem_ctrls1.dram.bytesPerActivate::640-767          454      0.39%     98.19% # Bytes accessed per row activation
system.mem_ctrls1.dram.bytesPerActivate::768-895          372      0.32%     98.51% # Bytes accessed per row activation
system.mem_ctrls1.dram.bytesPerActivate::896-1023          349      0.30%     98.81% # Bytes accessed per row activation
system.mem_ctrls1.dram.bytesPerActivate::1024-1151         1395      1.19%    100.00% # Bytes accessed per row activation
system.mem_ctrls1.dram.bytesPerActivate::total       117131                       # Bytes accessed per row activation
system.mem_ctrls1.dram.bytesRead              9628544                       # Total number of bytes read from DRAM
system.mem_ctrls1.dram.bytesWritten           5054592                       # Total number of bytes written to DRAM
system.mem_ctrls1.dram.avgRdBW              71.422304                       # Average DRAM read bandwidth in MiBytes/s
system.mem_ctrls1.dram.avgWrBW              37.493790                       # Average DRAM write bandwidth in MiBytes/s
system.mem_ctrls1.dram.peakBW                19207.00                       # Theoretical peak bandwidth in MiByte/s
system.mem_ctrls1.dram.busUtil                   0.57                       # Data bus utilization in percentage
system.mem_ctrls1.dram.busUtilRead               0.37                       # Data bus utilization in percentage for reads
system.mem_ctrls1.dram.busUtilWrite              0.20                       # Data bus utilization in percentage for writes
system.mem_ctrls1.dram.pageHitRate              48.95                       # Row buffer hit rate, read and write combined
system.mem_ctrls1.dram.power_state.pwrStateResidencyTicks::UNDEFINED 134811445500                       # Cumulative time (in ticks) in various power states
system.mem_ctrls1.dram.rank0.actEnergy   195704806.752016                       # Energy for activate commands per rank (pJ)
system.mem_ctrls1.dram.rank0.preEnergy   260182885.199983                       # Energy for precharge commands per rank (pJ)
system.mem_ctrls1.dram.rank0.readEnergy  333590366.457547                       # Energy for read commands per rank (pJ)
system.mem_ctrls1.dram.rank0.writeEnergy 153978064.127999                       # Energy for write commands per rank (pJ)
system.mem_ctrls1.dram.rank0.refreshEnergy 23986428237.341488                       # Energy for refresh commands per rank (pJ)
system.mem_ctrls1.dram.rank0.actBackEnergy 57746223775.390953                       # Energy for active background per rank (pJ)
system.mem_ctrls1.dram.rank0.preBackEnergy 43634931778.904182                       # Energy for precharge background per rank (pJ)
system.mem_ctrls1.dram.rank0.actPowerDownEnergy            0                       # Energy for active power-down per rank (pJ)
system.mem_ctrls1.dram.rank0.prePowerDownEnergy            0                       # Energy for precharge power-down per rank (pJ)
system.mem_ctrls1.dram.rank0.selfRefreshEnergy            0                       # Energy for self refresh per rank (pJ)
system.mem_ctrls1.dram.rank0.totalEnergy 126311039914.178360                       # Total energy per rank (pJ)
system.mem_ctrls1.dram.rank0.averagePower   936.945965                       # Core power per rank (mW)
system.mem_ctrls1.dram.rank0.totalIdleTime            0                       # Total Idle time Per DRAM Rank
system.mem_ctrls1.dram.rank0.pwrStateTime::IDLE  66425136019                       # Time in different power states
system.mem_ctrls1.dram.rank0.pwrStateTime::REF   6059900000                       # Time in different power states
system.mem_ctrls1.dram.rank0.pwrStateTime::SREF            0                       # Time in different power states
system.mem_ctrls1.dram.rank0.pwrStateTime::PRE_PDN            0                       # Time in different power states
system.mem_ctrls1.dram.rank0.pwrStateTime::ACT  62326409481                       # Time in different power states
system.mem_ctrls1.dram.rank0.pwrStateTime::ACT_PDN            0                       # Time in different power states
system.mem_ctrls1.dram.rank1.actEnergy   169600852.512011                       # Energy for activate commands per rank (pJ)
system.mem_ctrls1.dram.rank1.preEnergy   225482159.044787                       # Energy for precharge commands per rank (pJ)
system.mem_ctrls1.dram.rank1.readEnergy  299233170.835154                       # Energy for read commands per rank (pJ)
system.mem_ctrls1.dram.rank1.writeEnergy 142860432.959999                       # Energy for write commands per rank (pJ)
system.mem_ctrls1.dram.rank1.refreshEnergy 23986428237.341488                       # Energy for refresh commands per rank (pJ)
system.mem_ctrls1.dram.rank1.actBackEnergy 55522037601.871964                       # Energy for active background per rank (pJ)
system.mem_ctrls1.dram.rank1.preBackEnergy 45343910985.674889                       # Energy for precharge background per rank (pJ)
system.mem_ctrls1.dram.rank1.actPowerDownEnergy            0                       # Energy for active power-down per rank (pJ)
system.mem_ctrls1.dram.rank1.prePowerDownEnergy            0                       # Energy for precharge power-down per rank (pJ)
system.mem_ctrls1.dram.rank1.selfRefreshEnergy            0                       # Energy for self refresh per rank (pJ)
system.mem_ctrls1.dram.rank1.totalEnergy 125689553440.246109                       # Total energy per rank (pJ)
system.mem_ctrls1.dram.rank1.averagePower   932.335923                       # Core power per rank (mW)
system.mem_ctrls1.dram.rank1.totalIdleTime            0                       # Total Idle time Per DRAM Rank
system.mem_ctrls1.dram.rank1.pwrStateTime::IDLE  69048381295                       # Time in different power states
system.mem_ctrls1.dram.rank1.pwrStateTime::REF   6059900000                       # Time in different power states
system.mem_ctrls1.dram.rank1.pwrStateTime::SREF            0                       # Time in different power states
system.mem_ctrls1.dram.rank1.pwrStateTime::PRE_PDN            0                       # Time in different power states
system.mem_ctrls1.dram.rank1.pwrStateTime::ACT  59703164205                       # Time in different power states
system.mem_ctrls1.dram.rank1.pwrStateTime::ACT_PDN            0                       # Time in different power states
system.mem_ctrls1.power_state.pwrStateResidencyTicks::UNDEFINED 134811445500                       # Cumulative time (in ticks) in various power states
system.membus.trans_dist::ReadResp             122447                       # Transaction distribution
system.membus.trans_dist::WritebackDirty       158250                       # Transaction distribution
system.membus.trans_dist::CleanEvict            79320                       # Transaction distribution
system.membus.trans_dist::ReadExReq            180662                       # Transaction distribution
system.membus.trans_dist::ReadExResp           180662                       # Transaction distribution
system.membus.trans_dist::ReadSharedReq        122447                       # Transaction distribution
system.membus.pkt_count_system.l2.mem_side_port::system.mem_ctrls0.port       423115                       # Packet count per connected requestor and responder (bytes)
system.membus.pkt_count_system.l2.mem_side_port::system.mem_ctrls1.port       420673                       # Packet count per connected requestor and responder (bytes)
system.membus.pkt_count_system.l2.mem_side_port::total       843788                       # Packet count per connected requestor and responder (bytes)
system.membus.pkt_count::total                 843788                       # Packet count per connected requestor and responder (bytes)
system.membus.pkt_size_system.l2.mem_side_port::system.mem_ctrls0.port     14795136                       # Cumulative packet size per connected requestor and responder (bytes)
system.membus.pkt_size_system.l2.mem_side_port::system.mem_ctrls1.port     14731840                       # Cumulative packet size per connected requestor and responder (bytes)
system.membus.pkt_size_system.l2.mem_side_port::total     29526976                       # Cumulative packet size per connected requestor and responder (bytes)
system.membus.pkt_size::total                29526976                       # Cumulative packet size per connected requestor and responder (bytes)
system.membus.snoops                                0                       # Total snoops (count)
system.membus.snoopTraffic                          0                       # Total snoop traffic (bytes)
system.membus.snoop_fanout::samples            303109                       # Request fanout histogram
system.membus.snoop_fanout::mean                    0                       # Request fanout histogram
system.membus.snoop_fanout::stdev                   0                       # Request fanout histogram
system.membus.snoop_fanout::underflows              0      0.00%      0.00% # Request fanout histogram
system.membus.snoop_fanout::0                  303109    100.00%    100.00% # Request fanout histogram
system.membus.snoop_fanout::1                       0      0.00%    100.00% # Request fanout histogram
system.membus.snoop_fanout::overflows               0      0.00%    100.00% # Request fanout histogram
system.membus.snoop_fanout::min_value               0                       # Request fanout histogram
system.membus.snoop_fanout::max_value               0                       # Request fanout histogram
system.membus.snoop_fanout::total              303109                       # Request fanout histogram
system.membus.power_state.pwrStateResidencyTicks::UNDEFINED 134811445500                       # Cumulative time (in ticks) in various power states
system.membus.reqLayer4.occupancy           622382778                       # Layer occupancy (ticks)
system.membus.reqLayer4.utilization               0.5                       # Layer utilization (%)
system.membus.reqLayer5.occupancy           619463377                       # Layer occupancy (ticks)
system.membus.reqLayer5.utilization               0.5                       # Layer utilization (%)
system.membus.respLayer1.occupancy         1617638909                       # Layer occupancy (ticks)
system.membus.respLayer1.utilization              1.2                       # Layer utilization (%)
system.tol2bus.trans_dist::ReadResp          15917946                       # Transaction distribution
system.tol2bus.trans_dist::WritebackDirty      3589219                       # Transaction distribution
system.tol2bus.trans_dist::WritebackClean     13756864                       # Transaction distribution
system.tol2bus.trans_dist::CleanEvict           81881                       # Transaction distribution
system.tol2bus.trans_dist::HardPFReq             1801                       # Transaction distribution
system.tol2bus.trans_dist::UpgradeReq             163                       # Transaction distribution
system.tol2bus.trans_dist::UpgradeResp            163                       # Transaction distribution
system.tol2bus.trans_dist::ReadExReq          1270826                       # Transaction distribution
system.tol2bus.trans_dist::ReadExResp         1270826                       # Transaction distribution
system.tol2bus.trans_dist::ReadCleanReq      11599579                       # Transaction distribution
system.tol2bus.trans_dist::ReadSharedReq      4318367                       # Transaction distribution
system.tol2bus.pkt_count_system.cpu.icache.mem_side_port::system.l2.cpu_side_port     34796853                       # Packet count per connected requestor and responder (bytes)
system.tol2bus.pkt_count_system.cpu.dcache.mem_side_port::system.l2.cpu_side_port     16767709                       # Packet count per connected requestor and responder (bytes)
system.tol2bus.pkt_count::total              51564562                       # Packet count per connected requestor and responder (bytes)
system.tol2bus.pkt_size_system.cpu.icache.mem_side_port::system.l2.cpu_side_port   1484625536                       # Cumulative packet size per connected requestor and responder (bytes)
system.tol2bus.pkt_size_system.cpu.dcache.mem_side_port::system.l2.cpu_side_port    715404160                       # Cumulative packet size per connected requestor and responder (bytes)
system.tol2bus.pkt_size::total             2200029696                       # Cumulative packet size per connected requestor and responder (bytes)
system.tol2bus.snoops                          243073                       # Total snoops (count)
system.tol2bus.snoopTraffic                  10201024                       # Total snoop traffic (bytes)
system.tol2bus.snoop_fanout::samples         17430867                       # Request fanout histogram
system.tol2bus.snoop_fanout::mean            0.007140                       # Request fanout histogram
system.tol2bus.snoop_fanout::stdev           0.084206                       # Request fanout histogram
system.tol2bus.snoop_fanout::underflows             0      0.00%      0.00% # Request fanout histogram
system.tol2bus.snoop_fanout::0               17306415     99.29%     99.29% # Request fanout histogram
system.tol2bus.snoop_fanout::1                 124441      0.71%    100.00% # Request fanout histogram
system.tol2bus.snoop_fanout::2                     11      0.00%    100.00% # Request fanout histogram
system.tol2bus.snoop_fanout::3                      0      0.00%    100.00% # Request fanout histogram
system.tol2bus.snoop_fanout::4                      0      0.00%    100.00% # Request fanout histogram
system.tol2bus.snoop_fanout::overflows              0      0.00%    100.00% # Request fanout histogram
system.tol2bus.snoop_fanout::min_value              0                       # Request fanout histogram
system.tol2bus.snoop_fanout::max_value              2                       # Request fanout histogram
system.tol2bus.snoop_fanout::total           17430867                       # Request fanout histogram
system.tol2bus.power_state.pwrStateResidencyTicks::UNDEFINED 134811445500                       # Cumulative time (in ticks) in various power states
system.tol2bus.reqLayer0.occupancy        34376217000                       # Layer occupancy (ticks)
system.tol2bus.reqLayer0.utilization             25.5                       # Layer utilization (%)
system.tol2bus.respLayer0.occupancy       17437175734                       # Layer occupancy (ticks)
system.tol2bus.respLayer0.utilization            12.9                       # Layer utilization (%)
system.tol2bus.respLayer1.occupancy        8414843431                       # Layer occupancy (ticks)
system.tol2bus.respLayer1.utilization             6.2                       # Layer utilization (%)
system.voltage_domain.voltage                       1                       # Voltage in Volts

---------- End Simulation Statistics   ----------
