
---------- Begin Simulation Statistics ----------
final_tick                               1163390043500                       # Number of ticks from beginning of simulation (restored from checkpoints and never reset)
host_mem_usage                               68052228                       # Number of bytes of host memory used
host_seconds                                  3517.68                       # Real time elapsed on the host
host_tick_rate                              330726930                       # Simulator tick rate (ticks/s)
sim_freq                                 1000000000000                       # Frequency of simulated ticks
sim_seconds                                  1.163390                       # Number of seconds simulated
sim_ticks                                1163390043500                       # Number of ticks simulated
system.cpu.cc_regfile_reads                 151035685                       # number of cc regfile reads
system.cpu.cc_regfile_writes                120070148                       # number of cc regfile writes
system.cpu.committedInsts::0                100000280                       # Number of Instructions Simulated
system.cpu.committedInsts::1                100000000                       # Number of Instructions Simulated
system.cpu.committedInsts::total            200000280                       # Number of Instructions Simulated
system.cpu.committedOps::0                  199835769                       # Number of Ops (including micro ops) Simulated
system.cpu.committedOps::1                  199835209                       # Number of Ops (including micro ops) Simulated
system.cpu.committedOps::total              399670978                       # Number of Ops (including micro ops) Simulated
system.cpu.cpi::0                           23.267736                       # CPI: Cycles Per Instruction
system.cpu.cpi::1                           23.267801                       # CPI: Cycles Per Instruction
system.cpu.cpi_total                        11.633884                       # CPI: Total CPI of All Threads
system.cpu.fp_regfile_reads                 258064441                       # number of floating regfile reads
system.cpu.fp_regfile_writes                    13503                       # number of floating regfile writes
system.cpu.idleCycles                           56965                       # Total number of cycles that the CPU has spent unscheduled due to idling
system.cpu.iew.branchMispredicts                17037                       # Number of branch mispredicts detected at execute
system.cpu.iew.exec_branches::0              15101141                       # Number of branches executed
system.cpu.iew.exec_branches::1              15101615                       # Number of branches executed
system.cpu.iew.exec_branches::total          30202756                       # Number of branches executed
system.cpu.iew.exec_nop::0                          0                       # number of nop insts executed
system.cpu.iew.exec_nop::1                          0                       # number of nop insts executed
system.cpu.iew.exec_nop::total                      0                       # number of nop insts executed
system.cpu.iew.exec_rate                     0.178920                       # Inst execution rate
system.cpu.iew.exec_refs::0                 117531176                       # number of memory reference insts executed
system.cpu.iew.exec_refs::1                 117323620                       # number of memory reference insts executed
system.cpu.iew.exec_refs::total             234854796                       # number of memory reference insts executed
system.cpu.iew.exec_stores::0               117443316                       # Number of stores executed
system.cpu.iew.exec_stores::1               117235574                       # Number of stores executed
system.cpu.iew.exec_stores::total           234678890                       # Number of stores executed
system.cpu.iew.exec_swp::0                          0                       # number of swp insts executed
system.cpu.iew.exec_swp::1                          0                       # number of swp insts executed
system.cpu.iew.exec_swp::total                      0                       # number of swp insts executed
system.cpu.iew.iewBlockCycles                 2317975                       # Number of cycles IEW is blocking
system.cpu.iew.iewDispLoadInsts                188734                       # Number of dispatched load instructions
system.cpu.iew.iewDispNonSpecInsts                 66                       # Number of dispatched non-speculative instructions
system.cpu.iew.iewDispSquashedInsts                 0                       # Number of squashed instructions skipped by dispatch
system.cpu.iew.iewDispStoreInsts            238224527                       # Number of dispatched store instructions
system.cpu.iew.iewDispatchedInsts           420067437                       # Number of instructions dispatched to IQ
system.cpu.iew.iewExecLoadInsts::0              87860                       # Number of load instructions executed
system.cpu.iew.iewExecLoadInsts::1              88046                       # Number of load instructions executed
system.cpu.iew.iewExecLoadInsts::total         175906                       # Number of load instructions executed
system.cpu.iew.iewExecSquashedInsts             27969                       # Number of squashed instructions skipped in execute
system.cpu.iew.iewExecutedInsts             416307698                       # Number of executed instructions
system.cpu.iew.iewIQFullEvents                    528                       # Number of times the IQ has become full, causing a stall
system.cpu.iew.iewIdleCycles                        0                       # Number of cycles IEW is idle
system.cpu.iew.iewLSQFullEvents              77962576                       # Number of times the LSQ has become full, causing a stall
system.cpu.iew.iewSquashCycles                 457490                       # Number of cycles IEW is squashing
system.cpu.iew.iewUnblockCycles              77958822                       # Number of cycles IEW is unblocking
system.cpu.iew.memOrderViolationEvents            174                       # Number of memory order violations
system.cpu.iew.predictedNotTakenIncorrect        11587                       # Number of branches that were predicted not taken incorrectly
system.cpu.iew.predictedTakenIncorrect           5450                       # Number of branches that were predicted taken incorrectly
system.cpu.iew.wb_consumers::0              109142577                       # num instructions consuming a value
system.cpu.iew.wb_consumers::1              107386413                       # num instructions consuming a value
system.cpu.iew.wb_consumers::total          216528990                       # num instructions consuming a value
system.cpu.iew.wb_count::0                  203933896                       # cumulative count of insts written-back
system.cpu.iew.wb_count::1                  203936292                       # cumulative count of insts written-back
system.cpu.iew.wb_count::total              407870188                       # cumulative count of insts written-back
system.cpu.iew.wb_fanout::0                  0.634243                       # average fanout of values written-back
system.cpu.iew.wb_fanout::1                  0.648191                       # average fanout of values written-back
system.cpu.iew.wb_fanout::total              0.641160                       # average fanout of values written-back
system.cpu.iew.wb_producers::0               69222882                       # num instructions producing a value
system.cpu.iew.wb_producers::1               69606903                       # num instructions producing a value
system.cpu.iew.wb_producers::total          138829785                       # num instructions producing a value
system.cpu.iew.wb_rate::0                    0.087646                       # insts written-back per cycle
system.cpu.iew.wb_rate::1                    0.087647                       # insts written-back per cycle
system.cpu.iew.wb_rate::total                0.175294                       # insts written-back per cycle
system.cpu.iew.wb_sent::0                   208247867                       # cumulative count of insts sent to commit
system.cpu.iew.wb_sent::1                   208042830                       # cumulative count of insts sent to commit
system.cpu.iew.wb_sent::total               416290697                       # cumulative count of insts sent to commit
system.cpu.int_regfile_reads                699111991                       # number of integer regfile reads
system.cpu.int_regfile_writes               151394757                       # number of integer regfile writes
system.cpu.ipc::0                            0.042978                       # IPC: Instructions Per Cycle
system.cpu.ipc::1                            0.042978                       # IPC: Instructions Per Cycle
system.cpu.ipc_total                         0.085956                       # IPC: Total IPC of All Threads
system.cpu.iq.FU_type_0::No_OpClass              6140      0.00%      0.00% # Type of FU issued
system.cpu.iq.FU_type_0::IntAlu              90720310     41.18%     41.19% # Type of FU issued
system.cpu.iq.FU_type_0::IntMult                 1108      0.00%     41.19% # Type of FU issued
system.cpu.iq.FU_type_0::IntDiv                  1680      0.00%     41.19% # Type of FU issued
system.cpu.iq.FU_type_0::FloatAdd                 673      0.00%     41.19% # Type of FU issued
system.cpu.iq.FU_type_0::FloatCmp                   0      0.00%     41.19% # Type of FU issued
system.cpu.iq.FU_type_0::FloatCvt                  32      0.00%     41.19% # Type of FU issued
system.cpu.iq.FU_type_0::FloatMult                  0      0.00%     41.19% # Type of FU issued
system.cpu.iq.FU_type_0::FloatMultAcc               0      0.00%     41.19% # Type of FU issued
system.cpu.iq.FU_type_0::FloatDiv                   0      0.00%     41.19% # Type of FU issued
system.cpu.iq.FU_type_0::FloatMisc                  0      0.00%     41.19% # Type of FU issued
system.cpu.iq.FU_type_0::FloatSqrt                  0      0.00%     41.19% # Type of FU issued
system.cpu.iq.FU_type_0::SimdAdd                  512      0.00%     41.19% # Type of FU issued
system.cpu.iq.FU_type_0::SimdAddAcc                 0      0.00%     41.19% # Type of FU issued
system.cpu.iq.FU_type_0::SimdAlu                 1555      0.00%     41.19% # Type of FU issued
system.cpu.iq.FU_type_0::SimdCmp                   20      0.00%     41.19% # Type of FU issued
system.cpu.iq.FU_type_0::SimdCvt                 1247      0.00%     41.19% # Type of FU issued
system.cpu.iq.FU_type_0::SimdMisc                1165      0.00%     41.19% # Type of FU issued
system.cpu.iq.FU_type_0::SimdMult                   0      0.00%     41.19% # Type of FU issued
system.cpu.iq.FU_type_0::SimdMultAcc                0      0.00%     41.19% # Type of FU issued
system.cpu.iq.FU_type_0::SimdShift                111      0.00%     41.19% # Type of FU issued
system.cpu.iq.FU_type_0::SimdShiftAcc               0      0.00%     41.19% # Type of FU issued
system.cpu.iq.FU_type_0::SimdDiv                    0      0.00%     41.19% # Type of FU issued
system.cpu.iq.FU_type_0::SimdSqrt                   0      0.00%     41.19% # Type of FU issued
system.cpu.iq.FU_type_0::SimdFloatAdd               0      0.00%     41.19% # Type of FU issued
system.cpu.iq.FU_type_0::SimdFloatAlu               0      0.00%     41.19% # Type of FU issued
system.cpu.iq.FU_type_0::SimdFloatCmp               0      0.00%     41.19% # Type of FU issued
system.cpu.iq.FU_type_0::SimdFloatCvt               0      0.00%     41.19% # Type of FU issued
system.cpu.iq.FU_type_0::SimdFloatDiv               0      0.00%     41.19% # Type of FU issued
system.cpu.iq.FU_type_0::SimdFloatMisc              0      0.00%     41.19% # Type of FU issued
system.cpu.iq.FU_type_0::SimdFloatMult              0      0.00%     41.19% # Type of FU issued
system.cpu.iq.FU_type_0::SimdFloatMultAcc            0      0.00%     41.19% # Type of FU issued
system.cpu.iq.FU_type_0::SimdFloatSqrt              0      0.00%     41.19% # Type of FU issued
system.cpu.iq.FU_type_0::SimdReduceAdd              0      0.00%     41.19% # Type of FU issued
system.cpu.iq.FU_type_0::SimdReduceAlu              0      0.00%     41.19% # Type of FU issued
system.cpu.iq.FU_type_0::SimdReduceCmp              0      0.00%     41.19% # Type of FU issued
system.cpu.iq.FU_type_0::SimdFloatReduceAdd            0      0.00%     41.19% # Type of FU issued
system.cpu.iq.FU_type_0::SimdFloatReduceCmp            0      0.00%     41.19% # Type of FU issued
system.cpu.iq.FU_type_0::SimdAes                    0      0.00%     41.19% # Type of FU issued
system.cpu.iq.FU_type_0::SimdAesMix                 0      0.00%     41.19% # Type of FU issued
system.cpu.iq.FU_type_0::SimdSha1Hash               0      0.00%     41.19% # Type of FU issued
system.cpu.iq.FU_type_0::SimdSha1Hash2              0      0.00%     41.19% # Type of FU issued
system.cpu.iq.FU_type_0::SimdSha256Hash             0      0.00%     41.19% # Type of FU issued
system.cpu.iq.FU_type_0::SimdSha256Hash2            0      0.00%     41.19% # Type of FU issued
system.cpu.iq.FU_type_0::SimdShaSigma2              0      0.00%     41.19% # Type of FU issued
system.cpu.iq.FU_type_0::SimdShaSigma3              0      0.00%     41.19% # Type of FU issued
system.cpu.iq.FU_type_0::SimdPredAlu                0      0.00%     41.19% # Type of FU issued
system.cpu.iq.FU_type_0::MemRead                90403      0.04%     41.23% # Type of FU issued
system.cpu.iq.FU_type_0::MemWrite               98589      0.04%     41.28% # Type of FU issued
system.cpu.iq.FU_type_0::FloatMemRead            2426      0.00%     41.28% # Type of FU issued
system.cpu.iq.FU_type_0::FloatMemWrite      129359510     58.72%    100.00% # Type of FU issued
system.cpu.iq.FU_type_0::IprAccess                  0      0.00%    100.00% # Type of FU issued
system.cpu.iq.FU_type_0::InstPrefetch               0      0.00%    100.00% # Type of FU issued
system.cpu.iq.FU_type_0::total              220285481                       # Type of FU issued
system.cpu.iq.FU_type_1::No_OpClass              6021      0.00%      0.00% # Type of FU issued
system.cpu.iq.FU_type_1::IntAlu              90722794     41.31%     41.31% # Type of FU issued
system.cpu.iq.FU_type_1::IntMult                 1113      0.00%     41.31% # Type of FU issued
system.cpu.iq.FU_type_1::IntDiv                  1684      0.00%     41.31% # Type of FU issued
system.cpu.iq.FU_type_1::FloatAdd                 695      0.00%     41.31% # Type of FU issued
system.cpu.iq.FU_type_1::FloatCmp                   0      0.00%     41.31% # Type of FU issued
system.cpu.iq.FU_type_1::FloatCvt                  32      0.00%     41.31% # Type of FU issued
system.cpu.iq.FU_type_1::FloatMult                  0      0.00%     41.31% # Type of FU issued
system.cpu.iq.FU_type_1::FloatMultAcc               0      0.00%     41.31% # Type of FU issued
system.cpu.iq.FU_type_1::FloatDiv                   0      0.00%     41.31% # Type of FU issued
system.cpu.iq.FU_type_1::FloatMisc                  0      0.00%     41.31% # Type of FU issued
system.cpu.iq.FU_type_1::FloatSqrt                  0      0.00%     41.31% # Type of FU issued
system.cpu.iq.FU_type_1::SimdAdd                  503      0.00%     41.31% # Type of FU issued
system.cpu.iq.FU_type_1::SimdAddAcc                 0      0.00%     41.31% # Type of FU issued
system.cpu.iq.FU_type_1::SimdAlu                 1576      0.00%     41.32% # Type of FU issued
system.cpu.iq.FU_type_1::SimdCmp                   20      0.00%     41.32% # Type of FU issued
system.cpu.iq.FU_type_1::SimdCvt                 1229      0.00%     41.32% # Type of FU issued
system.cpu.iq.FU_type_1::SimdMisc                1161      0.00%     41.32% # Type of FU issued
system.cpu.iq.FU_type_1::SimdMult                   0      0.00%     41.32% # Type of FU issued
system.cpu.iq.FU_type_1::SimdMultAcc                0      0.00%     41.32% # Type of FU issued
system.cpu.iq.FU_type_1::SimdShift                111      0.00%     41.32% # Type of FU issued
system.cpu.iq.FU_type_1::SimdShiftAcc               0      0.00%     41.32% # Type of FU issued
system.cpu.iq.FU_type_1::SimdDiv                    0      0.00%     41.32% # Type of FU issued
system.cpu.iq.FU_type_1::SimdSqrt                   0      0.00%     41.32% # Type of FU issued
system.cpu.iq.FU_type_1::SimdFloatAdd               0      0.00%     41.32% # Type of FU issued
system.cpu.iq.FU_type_1::SimdFloatAlu               0      0.00%     41.32% # Type of FU issued
system.cpu.iq.FU_type_1::SimdFloatCmp               0      0.00%     41.32% # Type of FU issued
system.cpu.iq.FU_type_1::SimdFloatCvt               0      0.00%     41.32% # Type of FU issued
system.cpu.iq.FU_type_1::SimdFloatDiv               0      0.00%     41.32% # Type of FU issued
system.cpu.iq.FU_type_1::SimdFloatMisc              0      0.00%     41.32% # Type of FU issued
system.cpu.iq.FU_type_1::SimdFloatMult              0      0.00%     41.32% # Type of FU issued
system.cpu.iq.FU_type_1::SimdFloatMultAcc            0      0.00%     41.32% # Type of FU issued
system.cpu.iq.FU_type_1::SimdFloatSqrt              0      0.00%     41.32% # Type of FU issued
system.cpu.iq.FU_type_1::SimdReduceAdd              0      0.00%     41.32% # Type of FU issued
system.cpu.iq.FU_type_1::SimdReduceAlu              0      0.00%     41.32% # Type of FU issued
system.cpu.iq.FU_type_1::SimdReduceCmp              0      0.00%     41.32% # Type of FU issued
system.cpu.iq.FU_type_1::SimdFloatReduceAdd            0      0.00%     41.32% # Type of FU issued
system.cpu.iq.FU_type_1::SimdFloatReduceCmp            0      0.00%     41.32% # Type of FU issued
system.cpu.iq.FU_type_1::SimdAes                    0      0.00%     41.32% # Type of FU issued
system.cpu.iq.FU_type_1::SimdAesMix                 0      0.00%     41.32% # Type of FU issued
system.cpu.iq.FU_type_1::SimdSha1Hash               0      0.00%     41.32% # Type of FU issued
system.cpu.iq.FU_type_1::SimdSha1Hash2              0      0.00%     41.32% # Type of FU issued
system.cpu.iq.FU_type_1::SimdSha256Hash             0      0.00%     41.32% # Type of FU issued
system.cpu.iq.FU_type_1::SimdSha256Hash2            0      0.00%     41.32% # Type of FU issued
system.cpu.iq.FU_type_1::SimdShaSigma2              0      0.00%     41.32% # Type of FU issued
system.cpu.iq.FU_type_1::SimdShaSigma3              0      0.00%     41.32% # Type of FU issued
system.cpu.iq.FU_type_1::SimdPredAlu                0      0.00%     41.32% # Type of FU issued
system.cpu.iq.FU_type_1::MemRead                90325      0.04%     41.36% # Type of FU issued
system.cpu.iq.FU_type_1::MemWrite               98660      0.04%     41.40% # Type of FU issued
system.cpu.iq.FU_type_1::FloatMemRead            2408      0.00%     41.40% # Type of FU issued
system.cpu.iq.FU_type_1::FloatMemWrite      128686689     58.60%    100.00% # Type of FU issued
system.cpu.iq.FU_type_1::IprAccess                  0      0.00%    100.00% # Type of FU issued
system.cpu.iq.FU_type_1::InstPrefetch               0      0.00%    100.00% # Type of FU issued
system.cpu.iq.FU_type_1::total              219615021                       # Type of FU issued
system.cpu.iq.FU_type::total                439900502      0.00%      0.00% # Type of FU issued
system.cpu.iq.fp_alu_accesses               258079052                       # Number of floating point alu accesses
system.cpu.iq.fp_inst_queue_reads           519673923                       # Number of floating instruction queue reads
system.cpu.iq.fp_inst_queue_wakeup_accesses    226078173                       # Number of floating instruction queue wakeup accesses
system.cpu.iq.fp_inst_queue_writes          250002612                       # Number of floating instruction queue writes
system.cpu.iq.fu_busy_cnt::0                 55425572                       # FU busy when requested
system.cpu.iq.fu_busy_cnt::1                 49898358                       # FU busy when requested
system.cpu.iq.fu_busy_cnt::total            105323930                       # FU busy when requested
system.cpu.iq.fu_busy_rate::0                0.125996                       # FU busy rate (busy events/executed inst)
system.cpu.iq.fu_busy_rate::1                0.113431                       # FU busy rate (busy events/executed inst)
system.cpu.iq.fu_busy_rate::total            0.239427                       # FU busy rate (busy events/executed inst)
system.cpu.iq.fu_full::No_OpClass                   0      0.00%      0.00% # attempts to use FU when none available
system.cpu.iq.fu_full::IntAlu               104958169     99.65%     99.65% # attempts to use FU when none available
system.cpu.iq.fu_full::IntMult                     37      0.00%     99.65% # attempts to use FU when none available
system.cpu.iq.fu_full::IntDiv                   15728      0.01%     99.67% # attempts to use FU when none available
system.cpu.iq.fu_full::FloatAdd                  1312      0.00%     99.67% # attempts to use FU when none available
system.cpu.iq.fu_full::FloatCmp                     0      0.00%     99.67% # attempts to use FU when none available
system.cpu.iq.fu_full::FloatCvt                    26      0.00%     99.67% # attempts to use FU when none available
system.cpu.iq.fu_full::FloatMult                    0      0.00%     99.67% # attempts to use FU when none available
system.cpu.iq.fu_full::FloatMultAcc                 0      0.00%     99.67% # attempts to use FU when none available
system.cpu.iq.fu_full::FloatDiv                     0      0.00%     99.67% # attempts to use FU when none available
system.cpu.iq.fu_full::FloatMisc                    0      0.00%     99.67% # attempts to use FU when none available
system.cpu.iq.fu_full::FloatSqrt                    0      0.00%     99.67% # attempts to use FU when none available
system.cpu.iq.fu_full::SimdAdd                    934      0.00%     99.67% # attempts to use FU when none available
system.cpu.iq.fu_full::SimdAddAcc                   0      0.00%     99.67% # attempts to use FU when none available
system.cpu.iq.fu_full::SimdAlu                   1812      0.00%     99.67% # attempts to use FU when none available
system.cpu.iq.fu_full::SimdCmp                     34      0.00%     99.67% # attempts to use FU when none available
system.cpu.iq.fu_full::SimdCvt                   1882      0.00%     99.67% # attempts to use FU when none available
system.cpu.iq.fu_full::SimdMisc                  1932      0.00%     99.68% # attempts to use FU when none available
system.cpu.iq.fu_full::SimdMult                     0      0.00%     99.68% # attempts to use FU when none available
system.cpu.iq.fu_full::SimdMultAcc                  0      0.00%     99.68% # attempts to use FU when none available
system.cpu.iq.fu_full::SimdShift                  240      0.00%     99.68% # attempts to use FU when none available
system.cpu.iq.fu_full::SimdShiftAcc                 0      0.00%     99.68% # attempts to use FU when none available
system.cpu.iq.fu_full::SimdDiv                      0      0.00%     99.68% # attempts to use FU when none available
system.cpu.iq.fu_full::SimdSqrt                     0      0.00%     99.68% # attempts to use FU when none available
system.cpu.iq.fu_full::SimdFloatAdd                 0      0.00%     99.68% # attempts to use FU when none available
system.cpu.iq.fu_full::SimdFloatAlu                 0      0.00%     99.68% # attempts to use FU when none available
system.cpu.iq.fu_full::SimdFloatCmp                 0      0.00%     99.68% # attempts to use FU when none available
system.cpu.iq.fu_full::SimdFloatCvt                 0      0.00%     99.68% # attempts to use FU when none available
system.cpu.iq.fu_full::SimdFloatDiv                 0      0.00%     99.68% # attempts to use FU when none available
system.cpu.iq.fu_full::SimdFloatMisc                0      0.00%     99.68% # attempts to use FU when none available
system.cpu.iq.fu_full::SimdFloatMult                0      0.00%     99.68% # attempts to use FU when none available
system.cpu.iq.fu_full::SimdFloatMultAcc             0      0.00%     99.68% # attempts to use FU when none available
system.cpu.iq.fu_full::SimdFloatSqrt                0      0.00%     99.68% # attempts to use FU when none available
system.cpu.iq.fu_full::SimdReduceAdd                0      0.00%     99.68% # attempts to use FU when none available
system.cpu.iq.fu_full::SimdReduceAlu                0      0.00%     99.68% # attempts to use FU when none available
system.cpu.iq.fu_full::SimdReduceCmp                0      0.00%     99.68% # attempts to use FU when none available
system.cpu.iq.fu_full::SimdFloatReduceAdd            0      0.00%     99.68% # attempts to use FU when none available
system.cpu.iq.fu_full::SimdFloatReduceCmp            0      0.00%     99.68% # attempts to use FU when none available
system.cpu.iq.fu_full::SimdAes                      0      0.00%     99.68% # attempts to use FU when none available
system.cpu.iq.fu_full::SimdAesMix                   0      0.00%     99.68% # attempts to use FU when none available
system.cpu.iq.fu_full::SimdSha1Hash                 0      0.00%     99.68% # attempts to use FU when none available
system.cpu.iq.fu_full::SimdSha1Hash2                0      0.00%     99.68% # attempts to use FU when none available
system.cpu.iq.fu_full::SimdSha256Hash               0      0.00%     99.68% # attempts to use FU when none available
system.cpu.iq.fu_full::SimdSha256Hash2              0      0.00%     99.68% # attempts to use FU when none available
system.cpu.iq.fu_full::SimdShaSigma2                0      0.00%     99.68% # attempts to use FU when none available
system.cpu.iq.fu_full::SimdShaSigma3                0      0.00%     99.68% # attempts to use FU when none available
system.cpu.iq.fu_full::SimdPredAlu                  0      0.00%     99.68% # attempts to use FU when none available
system.cpu.iq.fu_full::MemRead                 199733      0.19%     99.87% # attempts to use FU when none available
system.cpu.iq.fu_full::MemWrite                142091      0.13%    100.00% # attempts to use FU when none available
system.cpu.iq.fu_full::FloatMemRead                 0      0.00%    100.00% # attempts to use FU when none available
system.cpu.iq.fu_full::FloatMemWrite                0      0.00%    100.00% # attempts to use FU when none available
system.cpu.iq.fu_full::IprAccess                    0      0.00%    100.00% # attempts to use FU when none available
system.cpu.iq.fu_full::InstPrefetch                 0      0.00%    100.00% # attempts to use FU when none available
system.cpu.iq.int_alu_accesses              392074929                       # Number of integer alu accesses
system.cpu.iq.int_inst_queue_reads         2900697564                       # Number of integer instruction queue reads
system.cpu.iq.int_inst_queue_wakeup_accesses    181792015                       # Number of integer instruction queue wakeup accesses
system.cpu.iq.int_inst_queue_writes         190461456                       # Number of integer instruction queue writes
system.cpu.iq.iqInstsAdded                  420067319                       # Number of instructions added to the IQ (excludes non-spec)
system.cpu.iq.iqInstsIssued                 439900502                       # Number of instructions issued
system.cpu.iq.iqNonSpecInstsAdded                 118                       # Number of non-speculative instructions added to the IQ
system.cpu.iq.iqSquashedInstsExamined        20396457                       # Number of squashed instructions iterated over during squash; mainly for profiling
system.cpu.iq.iqSquashedInstsIssued           3581721                       # Number of squashed instructions issued
system.cpu.iq.iqSquashedNonSpecRemoved             58                       # Number of squashed non-spec instructions that were removed
system.cpu.iq.iqSquashedOperandsExamined     48534431                       # Number of squashed operands that are examined and possibly removed from graph
system.cpu.iq.issued_per_cycle::samples    2326723123                       # Number of insts issued each cycle
system.cpu.iq.issued_per_cycle::mean         0.189064                       # Number of insts issued each cycle
system.cpu.iq.issued_per_cycle::stdev        0.602695                       # Number of insts issued each cycle
system.cpu.iq.issued_per_cycle::underflows            0      0.00%      0.00% # Number of insts issued each cycle
system.cpu.iq.issued_per_cycle::0          2040391778     87.69%     87.69% # Number of insts issued each cycle
system.cpu.iq.issued_per_cycle::1           193052185      8.30%     95.99% # Number of insts issued each cycle
system.cpu.iq.issued_per_cycle::2            53670031      2.31%     98.30% # Number of insts issued each cycle
system.cpu.iq.issued_per_cycle::3            23804556      1.02%     99.32% # Number of insts issued each cycle
system.cpu.iq.issued_per_cycle::4            13509300      0.58%     99.90% # Number of insts issued each cycle
system.cpu.iq.issued_per_cycle::5             1197382      0.05%     99.95% # Number of insts issued each cycle
system.cpu.iq.issued_per_cycle::6              350075      0.02%     99.97% # Number of insts issued each cycle
system.cpu.iq.issued_per_cycle::7               12501      0.00%     99.97% # Number of insts issued each cycle
system.cpu.iq.issued_per_cycle::8              735315      0.03%    100.00% # Number of insts issued each cycle
system.cpu.iq.issued_per_cycle::overflows            0      0.00%    100.00% # Number of insts issued each cycle
system.cpu.iq.issued_per_cycle::min_value            0                       # Number of insts issued each cycle
system.cpu.iq.issued_per_cycle::max_value            8                       # Number of insts issued each cycle
system.cpu.iq.issued_per_cycle::total      2326723123                       # Number of insts issued each cycle
system.cpu.iq.rate                           0.189060                       # Inst issue rate
system.cpu.iq.vec_alu_accesses                      0                       # Number of vector alu accesses
system.cpu.iq.vec_inst_queue_reads                  0                       # Number of vector instruction queue reads
system.cpu.iq.vec_inst_queue_wakeup_accesses            0                       # Number of vector instruction queue wakeup accesses
system.cpu.iq.vec_inst_queue_writes                 0                       # Number of vector instruction queue writes
system.cpu.memDep0.conflictingLoads              7089                       # Number of conflicting loads.
system.cpu.memDep0.conflictingStores             6881                       # Number of conflicting stores.
system.cpu.memDep0.insertedLoads                93952                       # Number of loads inserted to the mem dependence unit.
system.cpu.memDep0.insertedStores           119214506                       # Number of stores inserted to the mem dependence unit.
system.cpu.memDep1.conflictingLoads              7104                       # Number of conflicting loads.
system.cpu.memDep1.conflictingStores             6829                       # Number of conflicting stores.
system.cpu.memDep1.insertedLoads                94782                       # Number of loads inserted to the mem dependence unit.
system.cpu.memDep1.insertedStores           119010021                       # Number of stores inserted to the mem dependence unit.
system.cpu.misc_regfile_reads               318865236                       # number of misc regfile reads
system.cpu.misc_regfile_writes                     36                       # number of misc regfile writes
system.cpu.numCycles                       2326780088                       # number of cpu cycles simulated
system.cpu.numWorkItemsCompleted                    0                       # number of work items this cpu completed
system.cpu.numWorkItemsStarted                      0                       # number of work items this cpu started
system.cpu.timesIdled                            1034                       # Number of times that the entire CPU went into an idle state and unscheduled itself
system.cpu.workload0.numSyscalls                   35                       # Number of system calls
system.cpu.workload1.numSyscalls                   35                       # Number of system calls
system.membus.snoop_filter.hit_multi_requests            0                       # Number of requests hitting in the snoop filter with multiple (>1) holders of the requested data.
system.membus.snoop_filter.hit_multi_snoops            0                       # Number of snoops hitting in the snoop filter with multiple (>1) holders of the requested data.
system.membus.snoop_filter.hit_single_requests     28202275                       # Number of requests hitting in the snoop filter with a single holder of the requested data.
system.membus.snoop_filter.hit_single_snoops            0                       # Number of snoops hitting in the snoop filter with a single holder of the requested data.
system.membus.snoop_filter.tot_requests      56470598                       # Total number of requests made to the snoop filter.
system.membus.snoop_filter.tot_snoops               0                       # Total number of snoops made to the snoop filter.
system.tol2bus.snoop_filter.hit_multi_requests           16                       # Number of requests hitting in the snoop filter with multiple (>1) holders of the requested data.
system.tol2bus.snoop_filter.hit_multi_snoops            0                       # Number of snoops hitting in the snoop filter with multiple (>1) holders of the requested data.
system.tol2bus.snoop_filter.hit_single_requests     28271898                       # Number of requests hitting in the snoop filter with a single holder of the requested data.
system.tol2bus.snoop_filter.hit_single_snoops          512                       # Number of snoops hitting in the snoop filter with a single holder of the requested data.
system.tol2bus.snoop_filter.tot_requests     56544412                       # Total number of requests made to the snoop filter.
system.tol2bus.snoop_filter.tot_snoops            512                       # Total number of snoops made to the snoop filter.
sim_insts                                   200000280                       # Number of instructions simulated
sim_ops                                     399670978                       # Number of ops (including micro ops) simulated
host_inst_rate                                  56856                       # Simulator instruction rate (inst/s)
host_op_rate                                   113618                       # Simulator op (including micro ops) rate (op/s)
system.clk_domain.clock                          1000                       # Clock period in ticks
system.cpu.branchPred.lookups                31670637                       # Number of BP lookups
system.cpu.branchPred.condPredicted          31565782                       # Number of conditional branches predicted
system.cpu.branchPred.condIncorrect             17331                       # Number of conditional branches incorrect
system.cpu.branchPred.BTBLookups             31378333                       # Number of BTB lookups
system.cpu.branchPred.BTBHits                31374649                       # Number of BTB hits
system.cpu.branchPred.BTBHitPct             99.988259                       # BTB Hit Percentage
system.cpu.branchPred.RASUsed                    6768                       # Number of times the RAS was used to get a target.
system.cpu.branchPred.RASIncorrect                  8                       # Number of incorrect RAS predictions.
system.cpu.branchPred.indirectLookups            2311                       # Number of indirect predictor lookups.
system.cpu.branchPred.indirectHits                406                       # Number of indirect target hits.
system.cpu.branchPred.indirectMisses             1905                       # Number of indirect misses.
system.cpu.branchPred.indirectMispredicted          526                       # Number of mispredicted indirect branches.
system.cpu.branchPred.power_state.pwrStateResidencyTicks::UNDEFINED 1163390043500                       # Cumulative time (in ticks) in various power states
system.cpu.commit.commitSquashedInsts        19786496                       # The number of squashed insts skipped by commit
system.cpu.commit.commitNonSpecStalls              60                       # The number of times commit has been forced to stall to communicate backwards
system.cpu.commit.branchMispredicts             15531                       # The number of times a branch was mispredicted
system.cpu.commit.numCommittedDist::samples   2326721298                       # Number of insts commited each cycle
system.cpu.commit.numCommittedDist::mean     0.171774                       # Number of insts commited each cycle
system.cpu.commit.numCommittedDist::stdev     0.693355                       # Number of insts commited each cycle
system.cpu.commit.numCommittedDist::underflows            0      0.00%      0.00% # Number of insts commited each cycle
system.cpu.commit.numCommittedDist::0      2120164796     91.12%     91.12% # Number of insts commited each cycle
system.cpu.commit.numCommittedDist::1       120150225      5.16%     96.29% # Number of insts commited each cycle
system.cpu.commit.numCommittedDist::2        29373175      1.26%     97.55% # Number of insts commited each cycle
system.cpu.commit.numCommittedDist::3        30162074      1.30%     98.85% # Number of insts commited each cycle
system.cpu.commit.numCommittedDist::4        16854970      0.72%     99.57% # Number of insts commited each cycle
system.cpu.commit.numCommittedDist::5         3774038      0.16%     99.73% # Number of insts commited each cycle
system.cpu.commit.numCommittedDist::6         1826375      0.08%     99.81% # Number of insts commited each cycle
system.cpu.commit.numCommittedDist::7         2285299      0.10%     99.91% # Number of insts commited each cycle
system.cpu.commit.numCommittedDist::8         2130346      0.09%    100.00% # Number of insts commited each cycle
system.cpu.commit.numCommittedDist::overflows            0      0.00%    100.00% # Number of insts commited each cycle
system.cpu.commit.numCommittedDist::min_value            0                       # Number of insts commited each cycle
system.cpu.commit.numCommittedDist::max_value            8                       # Number of insts commited each cycle
system.cpu.commit.numCommittedDist::total   2326721298                       # Number of insts commited each cycle
system.cpu.commit.instsCommitted::0         100000280                       # Number of instructions committed
system.cpu.commit.instsCommitted::1         100000000                       # Number of instructions committed
system.cpu.commit.instsCommitted::total     200000280                       # Number of instructions committed
system.cpu.commit.opsCommitted::0           199835769                       # Number of ops (including micro ops) committed
system.cpu.commit.opsCommitted::1           199835209                       # Number of ops (including micro ops) committed
system.cpu.commit.opsCommitted::total       399670978                       # Number of ops (including micro ops) committed
system.cpu.commit.memRefs::0                113191495                       # Number of memory references committed
system.cpu.commit.memRefs::1                113191175                       # Number of memory references committed
system.cpu.commit.memRefs::total            226382670                       # Number of memory references committed
system.cpu.commit.loads::0                      65801                       # Number of loads committed
system.cpu.commit.loads::1                      65801                       # Number of loads committed
system.cpu.commit.loads::total                 131602                       # Number of loads committed
system.cpu.commit.amos::0                           0                       # Number of atomic instructions committed
system.cpu.commit.amos::1                           0                       # Number of atomic instructions committed
system.cpu.commit.amos::total                       0                       # Number of atomic instructions committed
system.cpu.commit.membars::0                        8                       # Number of memory barriers committed
system.cpu.commit.membars::1                        8                       # Number of memory barriers committed
system.cpu.commit.membars::total                   16                       # Number of memory barriers committed
system.cpu.commit.branches::0                14429731                       # Number of branches committed
system.cpu.commit.branches::1                14429691                       # Number of branches committed
system.cpu.commit.branches::total            28859422                       # Number of branches committed
system.cpu.commit.vector::0                         0                       # Number of committed Vector instructions.
system.cpu.commit.vector::1                         0                       # Number of committed Vector instructions.
system.cpu.commit.vector::total                     0                       # Number of committed Vector instructions.
system.cpu.commit.floating::0               113036694                       # Number of committed floating point instructions.
system.cpu.commit.floating::1               113036374                       # Number of committed floating point instructions.
system.cpu.commit.floating::total           226073068                       # Number of committed floating point instructions.
system.cpu.commit.integer::0                199828018                       # Number of committed integer instructions.
system.cpu.commit.integer::1                199827458                       # Number of committed integer instructions.
system.cpu.commit.integer::total            399655476                       # Number of committed integer instructions.
system.cpu.commit.functionCalls::0               2692                       # Number of function calls committed.
system.cpu.commit.functionCalls::1               2692                       # Number of function calls committed.
system.cpu.commit.functionCalls::total           5384                       # Number of function calls committed.
system.cpu.commit.committedInstType_0::No_OpClass         4296      0.00%      0.00% # Class of committed instruction
system.cpu.commit.committedInstType_0::IntAlu     86633289     43.35%     43.35% # Class of committed instruction
system.cpu.commit.committedInstType_0::IntMult         1095      0.00%     43.35% # Class of committed instruction
system.cpu.commit.committedInstType_0::IntDiv         1666      0.00%     43.36% # Class of committed instruction
system.cpu.commit.committedInstType_0::FloatAdd          432      0.00%     43.36% # Class of committed instruction
system.cpu.commit.committedInstType_0::FloatCmp            0      0.00%     43.36% # Class of committed instruction
system.cpu.commit.committedInstType_0::FloatCvt           32      0.00%     43.36% # Class of committed instruction
system.cpu.commit.committedInstType_0::FloatMult            0      0.00%     43.36% # Class of committed instruction
system.cpu.commit.committedInstType_0::FloatMultAcc            0      0.00%     43.36% # Class of committed instruction
system.cpu.commit.committedInstType_0::FloatDiv            0      0.00%     43.36% # Class of committed instruction
system.cpu.commit.committedInstType_0::FloatMisc            0      0.00%     43.36% # Class of committed instruction
system.cpu.commit.committedInstType_0::FloatSqrt            0      0.00%     43.36% # Class of committed instruction
system.cpu.commit.committedInstType_0::SimdAdd          434      0.00%     43.36% # Class of committed instruction
system.cpu.commit.committedInstType_0::SimdAddAcc            0      0.00%     43.36% # Class of committed instruction
system.cpu.commit.committedInstType_0::SimdAlu          887      0.00%     43.36% # Class of committed instruction
system.cpu.commit.committedInstType_0::SimdCmp           20      0.00%     43.36% # Class of committed instruction
system.cpu.commit.committedInstType_0::SimdCvt          988      0.00%     43.36% # Class of committed instruction
system.cpu.commit.committedInstType_0::SimdMisc         1028      0.00%     43.36% # Class of committed instruction
system.cpu.commit.committedInstType_0::SimdMult            0      0.00%     43.36% # Class of committed instruction
system.cpu.commit.committedInstType_0::SimdMultAcc            0      0.00%     43.36% # Class of committed instruction
system.cpu.commit.committedInstType_0::SimdShift          107      0.00%     43.36% # Class of committed instruction
system.cpu.commit.committedInstType_0::SimdShiftAcc            0      0.00%     43.36% # Class of committed instruction
system.cpu.commit.committedInstType_0::SimdDiv            0      0.00%     43.36% # Class of committed instruction
system.cpu.commit.committedInstType_0::SimdSqrt            0      0.00%     43.36% # Class of committed instruction
system.cpu.commit.committedInstType_0::SimdFloatAdd            0      0.00%     43.36% # Class of committed instruction
system.cpu.commit.committedInstType_0::SimdFloatAlu            0      0.00%     43.36% # Class of committed instruction
system.cpu.commit.committedInstType_0::SimdFloatCmp            0      0.00%     43.36% # Class of committed instruction
system.cpu.commit.committedInstType_0::SimdFloatCvt            0      0.00%     43.36% # Class of committed instruction
system.cpu.commit.committedInstType_0::SimdFloatDiv            0      0.00%     43.36% # Class of committed instruction
system.cpu.commit.committedInstType_0::SimdFloatMisc            0      0.00%     43.36% # Class of committed instruction
system.cpu.commit.committedInstType_0::SimdFloatMult            0      0.00%     43.36% # Class of committed instruction
system.cpu.commit.committedInstType_0::SimdFloatMultAcc            0      0.00%     43.36% # Class of committed instruction
system.cpu.commit.committedInstType_0::SimdFloatSqrt            0      0.00%     43.36% # Class of committed instruction
system.cpu.commit.committedInstType_0::SimdReduceAdd            0      0.00%     43.36% # Class of committed instruction
system.cpu.commit.committedInstType_0::SimdReduceAlu            0      0.00%     43.36% # Class of committed instruction
system.cpu.commit.committedInstType_0::SimdReduceCmp            0      0.00%     43.36% # Class of committed instruction
system.cpu.commit.committedInstType_0::SimdFloatReduceAdd            0      0.00%     43.36% # Class of committed instruction
system.cpu.commit.committedInstType_0::SimdFloatReduceCmp            0      0.00%     43.36% # Class of committed instruction
system.cpu.commit.committedInstType_0::SimdAes            0      0.00%     43.36% # Class of committed instruction
system.cpu.commit.committedInstType_0::SimdAesMix            0      0.00%     43.36% # Class of committed instruction
system.cpu.commit.committedInstType_0::SimdSha1Hash            0      0.00%     43.36% # Class of committed instruction
system.cpu.commit.committedInstType_0::SimdSha1Hash2            0      0.00%     43.36% # Class of committed instruction
system.cpu.commit.committedInstType_0::SimdSha256Hash            0      0.00%     43.36% # Class of committed instruction
system.cpu.commit.committedInstType_0::SimdSha256Hash2            0      0.00%     43.36% # Class of committed instruction
system.cpu.commit.committedInstType_0::SimdShaSigma2            0      0.00%     43.36% # Class of committed instruction
system.cpu.commit.committedInstType_0::SimdShaSigma3            0      0.00%     43.36% # Class of committed instruction
system.cpu.commit.committedInstType_0::SimdPredAlu            0      0.00%     43.36% # Class of committed instruction
system.cpu.commit.committedInstType_0::MemRead        64619      0.03%     43.39% # Class of committed instruction
system.cpu.commit.committedInstType_0::MemWrite        94453      0.05%     43.44% # Class of committed instruction
system.cpu.commit.committedInstType_0::FloatMemRead         1182      0.00%     43.44% # Class of committed instruction
system.cpu.commit.committedInstType_0::FloatMemWrite    113031241     56.56%    100.00% # Class of committed instruction
system.cpu.commit.committedInstType_0::IprAccess            0      0.00%    100.00% # Class of committed instruction
system.cpu.commit.committedInstType_0::InstPrefetch            0      0.00%    100.00% # Class of committed instruction
system.cpu.commit.committedInstType_0::total    199835769                       # Class of committed instruction
system.cpu.commit.committedInstType_1::No_OpClass         4296      0.00%      0.00% # Class of committed instruction
system.cpu.commit.committedInstType_1::IntAlu     86633049     43.35%     43.35% # Class of committed instruction
system.cpu.commit.committedInstType_1::IntMult         1095      0.00%     43.35% # Class of committed instruction
system.cpu.commit.committedInstType_1::IntDiv         1666      0.00%     43.36% # Class of committed instruction
system.cpu.commit.committedInstType_1::FloatAdd          432      0.00%     43.36% # Class of committed instruction
system.cpu.commit.committedInstType_1::FloatCmp            0      0.00%     43.36% # Class of committed instruction
system.cpu.commit.committedInstType_1::FloatCvt           32      0.00%     43.36% # Class of committed instruction
system.cpu.commit.committedInstType_1::FloatMult            0      0.00%     43.36% # Class of committed instruction
system.cpu.commit.committedInstType_1::FloatMultAcc            0      0.00%     43.36% # Class of committed instruction
system.cpu.commit.committedInstType_1::FloatDiv            0      0.00%     43.36% # Class of committed instruction
system.cpu.commit.committedInstType_1::FloatMisc            0      0.00%     43.36% # Class of committed instruction
system.cpu.commit.committedInstType_1::FloatSqrt            0      0.00%     43.36% # Class of committed instruction
system.cpu.commit.committedInstType_1::SimdAdd          434      0.00%     43.36% # Class of committed instruction
system.cpu.commit.committedInstType_1::SimdAddAcc            0      0.00%     43.36% # Class of committed instruction
system.cpu.commit.committedInstType_1::SimdAlu          887      0.00%     43.36% # Class of committed instruction
system.cpu.commit.committedInstType_1::SimdCmp           20      0.00%     43.36% # Class of committed instruction
system.cpu.commit.committedInstType_1::SimdCvt          988      0.00%     43.36% # Class of committed instruction
system.cpu.commit.committedInstType_1::SimdMisc         1028      0.00%     43.36% # Class of committed instruction
system.cpu.commit.committedInstType_1::SimdMult            0      0.00%     43.36% # Class of committed instruction
system.cpu.commit.committedInstType_1::SimdMultAcc            0      0.00%     43.36% # Class of committed instruction
system.cpu.commit.committedInstType_1::SimdShift          107      0.00%     43.36% # Class of committed instruction
system.cpu.commit.committedInstType_1::SimdShiftAcc            0      0.00%     43.36% # Class of committed instruction
system.cpu.commit.committedInstType_1::SimdDiv            0      0.00%     43.36% # Class of committed instruction
system.cpu.commit.committedInstType_1::SimdSqrt            0      0.00%     43.36% # Class of committed instruction
system.cpu.commit.committedInstType_1::SimdFloatAdd            0      0.00%     43.36% # Class of committed instruction
system.cpu.commit.committedInstType_1::SimdFloatAlu            0      0.00%     43.36% # Class of committed instruction
system.cpu.commit.committedInstType_1::SimdFloatCmp            0      0.00%     43.36% # Class of committed instruction
system.cpu.commit.committedInstType_1::SimdFloatCvt            0      0.00%     43.36% # Class of committed instruction
system.cpu.commit.committedInstType_1::SimdFloatDiv            0      0.00%     43.36% # Class of committed instruction
system.cpu.commit.committedInstType_1::SimdFloatMisc            0      0.00%     43.36% # Class of committed instruction
system.cpu.commit.committedInstType_1::SimdFloatMult            0      0.00%     43.36% # Class of committed instruction
system.cpu.commit.committedInstType_1::SimdFloatMultAcc            0      0.00%     43.36% # Class of committed instruction
system.cpu.commit.committedInstType_1::SimdFloatSqrt            0      0.00%     43.36% # Class of committed instruction
system.cpu.commit.committedInstType_1::SimdReduceAdd            0      0.00%     43.36% # Class of committed instruction
system.cpu.commit.committedInstType_1::SimdReduceAlu            0      0.00%     43.36% # Class of committed instruction
system.cpu.commit.committedInstType_1::SimdReduceCmp            0      0.00%     43.36% # Class of committed instruction
system.cpu.commit.committedInstType_1::SimdFloatReduceAdd            0      0.00%     43.36% # Class of committed instruction
system.cpu.commit.committedInstType_1::SimdFloatReduceCmp            0      0.00%     43.36% # Class of committed instruction
system.cpu.commit.committedInstType_1::SimdAes            0      0.00%     43.36% # Class of committed instruction
system.cpu.commit.committedInstType_1::SimdAesMix            0      0.00%     43.36% # Class of committed instruction
system.cpu.commit.committedInstType_1::SimdSha1Hash            0      0.00%     43.36% # Class of committed instruction
system.cpu.commit.committedInstType_1::SimdSha1Hash2            0      0.00%     43.36% # Class of committed instruction
system.cpu.commit.committedInstType_1::SimdSha256Hash            0      0.00%     43.36% # Class of committed instruction
system.cpu.commit.committedInstType_1::SimdSha256Hash2            0      0.00%     43.36% # Class of committed instruction
system.cpu.commit.committedInstType_1::SimdShaSigma2            0      0.00%     43.36% # Class of committed instruction
system.cpu.commit.committedInstType_1::SimdShaSigma3            0      0.00%     43.36% # Class of committed instruction
system.cpu.commit.committedInstType_1::SimdPredAlu            0      0.00%     43.36% # Class of committed instruction
system.cpu.commit.committedInstType_1::MemRead        64619      0.03%     43.39% # Class of committed instruction
system.cpu.commit.committedInstType_1::MemWrite        94453      0.05%     43.44% # Class of committed instruction
system.cpu.commit.committedInstType_1::FloatMemRead         1182      0.00%     43.44% # Class of committed instruction
system.cpu.commit.committedInstType_1::FloatMemWrite    113030921     56.56%    100.00% # Class of committed instruction
system.cpu.commit.committedInstType_1::IprAccess            0      0.00%    100.00% # Class of committed instruction
system.cpu.commit.committedInstType_1::InstPrefetch            0      0.00%    100.00% # Class of committed instruction
system.cpu.commit.committedInstType_1::total    199835209                       # Class of committed instruction
system.cpu.commit.committedInstType::total    399670978      0.00%      0.00% # Class of committed instruction
system.cpu.commit.commitEligibleSamples       2130346                       # number cycles where commit BW limit reached
system.cpu.dcache.demand_hits::.cpu.data    198109012                       # number of demand (read+write) hits
system.cpu.dcache.demand_hits::total        198109012                       # number of demand (read+write) hits
system.cpu.dcache.overall_hits::.cpu.data    198109012                       # number of overall hits
system.cpu.dcache.overall_hits::total       198109012                       # number of overall hits
system.cpu.dcache.demand_misses::.cpu.data     28287151                       # number of demand (read+write) misses
system.cpu.dcache.demand_misses::total       28287151                       # number of demand (read+write) misses
system.cpu.dcache.overall_misses::.cpu.data     28287151                       # number of overall misses
system.cpu.dcache.overall_misses::total      28287151                       # number of overall misses
system.cpu.dcache.demand_miss_latency::.cpu.data 2109478260872                       # number of demand (read+write) miss cycles
system.cpu.dcache.demand_miss_latency::total 2109478260872                       # number of demand (read+write) miss cycles
system.cpu.dcache.overall_miss_latency::.cpu.data 2109478260872                       # number of overall miss cycles
system.cpu.dcache.overall_miss_latency::total 2109478260872                       # number of overall miss cycles
system.cpu.dcache.demand_accesses::.cpu.data    226396163                       # number of demand (read+write) accesses
system.cpu.dcache.demand_accesses::total    226396163                       # number of demand (read+write) accesses
system.cpu.dcache.overall_accesses::.cpu.data    226396163                       # number of overall (read+write) accesses
system.cpu.dcache.overall_accesses::total    226396163                       # number of overall (read+write) accesses
system.cpu.dcache.demand_miss_rate::.cpu.data     0.124945                       # miss rate for demand accesses
system.cpu.dcache.demand_miss_rate::total     0.124945                       # miss rate for demand accesses
system.cpu.dcache.overall_miss_rate::.cpu.data     0.124945                       # miss rate for overall accesses
system.cpu.dcache.overall_miss_rate::total     0.124945                       # miss rate for overall accesses
system.cpu.dcache.demand_avg_miss_latency::.cpu.data 74573.726455                       # average overall miss latency
system.cpu.dcache.demand_avg_miss_latency::total 74573.726455                       # average overall miss latency
system.cpu.dcache.overall_avg_miss_latency::.cpu.data 74573.726455                       # average overall miss latency
system.cpu.dcache.overall_avg_miss_latency::total 74573.726455                       # average overall miss latency
system.cpu.dcache.blocked_cycles::no_mshrs            0                       # number of cycles access was blocked
system.cpu.dcache.blocked_cycles::no_targets        63720                       # number of cycles access was blocked
system.cpu.dcache.blocked::no_mshrs                 0                       # number of cycles access was blocked
system.cpu.dcache.blocked::no_targets             891                       # number of cycles access was blocked
system.cpu.dcache.avg_blocked_cycles::no_mshrs          nan                       # average number of cycles each access was blocked
system.cpu.dcache.avg_blocked_cycles::no_targets    71.515152                       # average number of cycles each access was blocked
system.cpu.dcache.writebacks::.writebacks     28269413                       # number of writebacks
system.cpu.dcache.writebacks::total          28269413                       # number of writebacks
system.cpu.dcache.demand_mshr_hits::.cpu.data        17634                       # number of demand (read+write) MSHR hits
system.cpu.dcache.demand_mshr_hits::total        17634                       # number of demand (read+write) MSHR hits
system.cpu.dcache.overall_mshr_hits::.cpu.data        17634                       # number of overall MSHR hits
system.cpu.dcache.overall_mshr_hits::total        17634                       # number of overall MSHR hits
system.cpu.dcache.demand_mshr_misses::.cpu.data     28269517                       # number of demand (read+write) MSHR misses
system.cpu.dcache.demand_mshr_misses::total     28269517                       # number of demand (read+write) MSHR misses
system.cpu.dcache.overall_mshr_misses::.cpu.data     28269517                       # number of overall MSHR misses
system.cpu.dcache.overall_mshr_misses::total     28269517                       # number of overall MSHR misses
system.cpu.dcache.demand_mshr_miss_latency::.cpu.data 2080286852372                       # number of demand (read+write) MSHR miss cycles
system.cpu.dcache.demand_mshr_miss_latency::total 2080286852372                       # number of demand (read+write) MSHR miss cycles
system.cpu.dcache.overall_mshr_miss_latency::.cpu.data 2080286852372                       # number of overall MSHR miss cycles
system.cpu.dcache.overall_mshr_miss_latency::total 2080286852372                       # number of overall MSHR miss cycles
system.cpu.dcache.demand_mshr_miss_rate::.cpu.data     0.124867                       # mshr miss rate for demand accesses
system.cpu.dcache.demand_mshr_miss_rate::total     0.124867                       # mshr miss rate for demand accesses
system.cpu.dcache.overall_mshr_miss_rate::.cpu.data     0.124867                       # mshr miss rate for overall accesses
system.cpu.dcache.overall_mshr_miss_rate::total     0.124867                       # mshr miss rate for overall accesses
system.cpu.dcache.demand_avg_mshr_miss_latency::.cpu.data 73587.633364                       # average overall mshr miss latency
system.cpu.dcache.demand_avg_mshr_miss_latency::total 73587.633364                       # average overall mshr miss latency
system.cpu.dcache.overall_avg_mshr_miss_latency::.cpu.data 73587.633364                       # average overall mshr miss latency
system.cpu.dcache.overall_avg_mshr_miss_latency::total 73587.633364                       # average overall mshr miss latency
system.cpu.dcache.replacements                     30                       # number of replacements
system.cpu.dcache.expired                    28269383                       # dead blocks evicted
system.cpu.dcache.ReadReq_hits::.cpu.data       120118                       # number of ReadReq hits
system.cpu.dcache.ReadReq_hits::total          120118                       # number of ReadReq hits
system.cpu.dcache.ReadReq_misses::.cpu.data        25014                       # number of ReadReq misses
system.cpu.dcache.ReadReq_misses::total         25014                       # number of ReadReq misses
system.cpu.dcache.ReadReq_miss_latency::.cpu.data   1263149500                       # number of ReadReq miss cycles
system.cpu.dcache.ReadReq_miss_latency::total   1263149500                       # number of ReadReq miss cycles
system.cpu.dcache.ReadReq_accesses::.cpu.data       145132                       # number of ReadReq accesses(hits+misses)
system.cpu.dcache.ReadReq_accesses::total       145132                       # number of ReadReq accesses(hits+misses)
system.cpu.dcache.ReadReq_miss_rate::.cpu.data     0.172353                       # miss rate for ReadReq accesses
system.cpu.dcache.ReadReq_miss_rate::total     0.172353                       # miss rate for ReadReq accesses
system.cpu.dcache.ReadReq_avg_miss_latency::.cpu.data 50497.701287                       # average ReadReq miss latency
system.cpu.dcache.ReadReq_avg_miss_latency::total 50497.701287                       # average ReadReq miss latency
system.cpu.dcache.ReadReq_mshr_hits::.cpu.data        17622                       # number of ReadReq MSHR hits
system.cpu.dcache.ReadReq_mshr_hits::total        17622                       # number of ReadReq MSHR hits
system.cpu.dcache.ReadReq_mshr_misses::.cpu.data         7392                       # number of ReadReq MSHR misses
system.cpu.dcache.ReadReq_mshr_misses::total         7392                       # number of ReadReq MSHR misses
system.cpu.dcache.ReadReq_mshr_miss_latency::.cpu.data    334387500                       # number of ReadReq MSHR miss cycles
system.cpu.dcache.ReadReq_mshr_miss_latency::total    334387500                       # number of ReadReq MSHR miss cycles
system.cpu.dcache.ReadReq_mshr_miss_rate::.cpu.data     0.050933                       # mshr miss rate for ReadReq accesses
system.cpu.dcache.ReadReq_mshr_miss_rate::total     0.050933                       # mshr miss rate for ReadReq accesses
system.cpu.dcache.ReadReq_avg_mshr_miss_latency::.cpu.data 45236.404221                       # average ReadReq mshr miss latency
system.cpu.dcache.ReadReq_avg_mshr_miss_latency::total 45236.404221                       # average ReadReq mshr miss latency
system.cpu.dcache.WriteReq_hits::.cpu.data    197988894                       # number of WriteReq hits
system.cpu.dcache.WriteReq_hits::total      197988894                       # number of WriteReq hits
system.cpu.dcache.WriteReq_misses::.cpu.data     28262137                       # number of WriteReq misses
system.cpu.dcache.WriteReq_misses::total     28262137                       # number of WriteReq misses
system.cpu.dcache.WriteReq_miss_latency::.cpu.data 2108215111372                       # number of WriteReq miss cycles
system.cpu.dcache.WriteReq_miss_latency::total 2108215111372                       # number of WriteReq miss cycles
system.cpu.dcache.WriteReq_accesses::.cpu.data    226251031                       # number of WriteReq accesses(hits+misses)
system.cpu.dcache.WriteReq_accesses::total    226251031                       # number of WriteReq accesses(hits+misses)
system.cpu.dcache.WriteReq_miss_rate::.cpu.data     0.124915                       # miss rate for WriteReq accesses
system.cpu.dcache.WriteReq_miss_rate::total     0.124915                       # miss rate for WriteReq accesses
system.cpu.dcache.WriteReq_avg_miss_latency::.cpu.data 74595.035449                       # average WriteReq miss latency
system.cpu.dcache.WriteReq_avg_miss_latency::total 74595.035449                       # average WriteReq miss latency
system.cpu.dcache.WriteReq_mshr_hits::.cpu.data           12                       # number of WriteReq MSHR hits
system.cpu.dcache.WriteReq_mshr_hits::total           12                       # number of WriteReq MSHR hits
system.cpu.dcache.WriteReq_mshr_misses::.cpu.data     28262125                       # number of WriteReq MSHR misses
system.cpu.dcache.WriteReq_mshr_misses::total     28262125                       # number of WriteReq MSHR misses
system.cpu.dcache.WriteReq_mshr_miss_latency::.cpu.data 2079952464872                       # number of WriteReq MSHR miss cycles
system.cpu.dcache.WriteReq_mshr_miss_latency::total 2079952464872                       # number of WriteReq MSHR miss cycles
system.cpu.dcache.WriteReq_mshr_miss_rate::.cpu.data     0.124915                       # mshr miss rate for WriteReq accesses
system.cpu.dcache.WriteReq_mshr_miss_rate::total     0.124915                       # mshr miss rate for WriteReq accesses
system.cpu.dcache.WriteReq_avg_mshr_miss_latency::.cpu.data 73595.048669                       # average WriteReq mshr miss latency
system.cpu.dcache.WriteReq_avg_mshr_miss_latency::total 73595.048669                       # average WriteReq mshr miss latency
system.cpu.dcache.power_state.pwrStateResidencyTicks::UNDEFINED 1163390043500                       # Cumulative time (in ticks) in various power states
system.cpu.dcache.tags.tagsinuse           100.995003                       # Cycle average of tags in use
system.cpu.dcache.tags.total_refs           226378529                       # Total number of references to valid blocks.
system.cpu.dcache.tags.sampled_refs          28269517                       # Sample count of references to valid blocks.
system.cpu.dcache.tags.avg_refs              8.007867                       # Average number of references to valid blocks.
system.cpu.dcache.tags.warmup_cycle            191500                       # Cycle when the warmup percentage was hit.
system.cpu.dcache.tags.occ_blocks::.cpu.data   100.995003                       # Average occupied blocks per requestor
system.cpu.dcache.tags.occ_percent::.cpu.data     0.197256                       # Average percentage of cache occupancy
system.cpu.dcache.tags.occ_percent::total     0.197256                       # Average percentage of cache occupancy
system.cpu.dcache.tags.occ_task_id_blocks::1024          104                       # Occupied blocks per task id
system.cpu.dcache.tags.age_task_id_blocks_1024::0          104                       # Occupied blocks per task id
system.cpu.dcache.tags.occ_task_id_percent::1024     0.203125                       # Percentage of cache occupancy per task id
system.cpu.dcache.tags.tag_accesses        1839438821                       # Number of tag accesses
system.cpu.dcache.tags.data_accesses       1839438821                       # Number of data accesses
system.cpu.dcache.tags.power_state.pwrStateResidencyTicks::UNDEFINED 1163390043500                       # Cumulative time (in ticks) in various power states
system.cpu.decode.idleCycles                 39996907                       # Number of cycles decode is idle
system.cpu.decode.blockedCycles            4524770663                       # Number of cycles decode is blocked
system.cpu.decode.runCycles                  16277788                       # Number of cycles decode is running
system.cpu.decode.unblockCycles              71943398                       # Number of cycles decode is unblocking
system.cpu.decode.squashCycles                 457490                       # Number of cycles decode is squashing
system.cpu.decode.branchResolved             30070408                       # Number of times decode resolved a  branch
system.cpu.decode.branchMispred                  1969                       # Number of times decode detected a branch misprediction
system.cpu.decode.decodedInsts              423072935                       # Number of instructions handled by decode
system.cpu.decode.squashedInsts                 72484                       # Number of squashed instructions handled by decode
system.cpu.dtb.rdAccesses                      165606                       # TLB accesses on read requests
system.cpu.dtb.wrAccesses                   238214001                       # TLB accesses on write requests
system.cpu.dtb.rdMisses                          4699                       # TLB misses on read requests
system.cpu.dtb.wrMisses                      23560153                       # TLB misses on write requests
system.cpu.dtb.walker.power_state.pwrStateResidencyTicks::UNDEFINED 1163390043500                       # Cumulative time (in ticks) in various power states
system.cpu.dtb_walker_cache.blocked_cycles::no_mshrs            0                       # number of cycles access was blocked
system.cpu.dtb_walker_cache.blocked_cycles::no_targets            0                       # number of cycles access was blocked
system.cpu.dtb_walker_cache.blocked::no_mshrs            0                       # number of cycles access was blocked
system.cpu.dtb_walker_cache.blocked::no_targets            0                       # number of cycles access was blocked
system.cpu.dtb_walker_cache.avg_blocked_cycles::no_mshrs          nan                       # average number of cycles each access was blocked
system.cpu.dtb_walker_cache.avg_blocked_cycles::no_targets          nan                       # average number of cycles each access was blocked
system.cpu.dtb_walker_cache.replacements            0                       # number of replacements
system.cpu.dtb_walker_cache.expired                 0                       # dead blocks evicted
system.cpu.dtb_walker_cache.power_state.pwrStateResidencyTicks::UNDEFINED 1163390043500                       # Cumulative time (in ticks) in various power states
system.cpu.dtb_walker_cache.tags.tagsinuse            0                       # Cycle average of tags in use
system.cpu.dtb_walker_cache.tags.total_refs            0                       # Total number of references to valid blocks.
system.cpu.dtb_walker_cache.tags.sampled_refs            0                       # Sample count of references to valid blocks.
system.cpu.dtb_walker_cache.tags.avg_refs          nan                       # Average number of references to valid blocks.
system.cpu.dtb_walker_cache.tags.warmup_cycle            0                       # Cycle when the warmup percentage was hit.
system.cpu.dtb_walker_cache.tags.tag_accesses            0                       # Number of tag accesses
system.cpu.dtb_walker_cache.tags.data_accesses            0                       # Number of data accesses
system.cpu.dtb_walker_cache.tags.power_state.pwrStateResidencyTicks::UNDEFINED 1163390043500                       # Cumulative time (in ticks) in various power states
system.cpu.fetch.icacheStallCycles             331156                       # Number of cycles fetch is stalled on an Icache miss
system.cpu.fetch.insts                      221098146                       # Number of instructions fetch has processed
system.cpu.fetch.branches                    31670637                       # Number of branches that fetch encountered
system.cpu.fetch.predictedBranches           31381823                       # Number of branches that fetch has predicted taken
system.cpu.fetch.cycles                    2326192362                       # Number of cycles fetch has run and was not squashing or blocked
system.cpu.fetch.squashCycles                  459409                       # Number of cycles fetch has spent squashing
system.cpu.fetch.tlbCycles                        523                       # Number of cycles fetch has spent waiting for tlb
system.cpu.fetch.miscStallCycles                   53                       # Number of cycles fetch has spent waiting on interrupts,or bad addresses, or out of MSHRs
system.cpu.fetch.cacheLines                  94654523                       # Number of cache lines fetched
system.cpu.fetch.icacheSquashes                  1928                       # Number of outstanding Icache misses that were squashed
system.cpu.fetch.tlbSquashes                      226                       # Number of outstanding ITLB misses that were squashed
system.cpu.fetch.SMTDist::samples          2326723123                       # Number of Cycles each Thread Fetched
system.cpu.fetch.SMTDist::mean               0.499865                       # Number of Cycles each Thread Fetched
system.cpu.fetch.SMTDist::stdev              0.500171                       # Number of Cycles each Thread Fetched
system.cpu.fetch.SMTDist::underflows                0      0.00%      0.00% # Number of Cycles each Thread Fetched
system.cpu.fetch.SMTDist::-1                   199029      0.01%      0.01% # Number of Cycles each Thread Fetched
system.cpu.fetch.SMTDist::0                1163278006     50.00%     50.00% # Number of Cycles each Thread Fetched
system.cpu.fetch.SMTDist::1                1163246088     50.00%    100.00% # Number of Cycles each Thread Fetched
system.cpu.fetch.SMTDist::2                         0      0.00%    100.00% # Number of Cycles each Thread Fetched
system.cpu.fetch.SMTDist::overflows                 0      0.00%    100.00% # Number of Cycles each Thread Fetched
system.cpu.fetch.SMTDist::min_value                -1                       # Number of Cycles each Thread Fetched
system.cpu.fetch.SMTDist::max_value                 1                       # Number of Cycles each Thread Fetched
system.cpu.fetch.SMTDist::total            2326723123                       # Number of Cycles each Thread Fetched
system.cpu.fetch.nisnDist::samples         2326723123                       # Number of instructions fetched each cycle (Total)
system.cpu.fetch.nisnDist::mean              0.189746                       # Number of instructions fetched each cycle (Total)
system.cpu.fetch.nisnDist::stdev             0.885243                       # Number of instructions fetched each cycle (Total)
system.cpu.fetch.nisnDist::underflows               0      0.00%      0.00% # Number of instructions fetched each cycle (Total)
system.cpu.fetch.nisnDist::0               2207908785     94.89%     94.89% # Number of instructions fetched each cycle (Total)
system.cpu.fetch.nisnDist::1                 14155562      0.61%     95.50% # Number of instructions fetched each cycle (Total)
system.cpu.fetch.nisnDist::2                 11972310      0.51%     96.02% # Number of instructions fetched each cycle (Total)
system.cpu.fetch.nisnDist::3                 13050087      0.56%     96.58% # Number of instructions fetched each cycle (Total)
system.cpu.fetch.nisnDist::4                 54511273      2.34%     98.92% # Number of instructions fetched each cycle (Total)
system.cpu.fetch.nisnDist::5                  4961775      0.21%     99.13% # Number of instructions fetched each cycle (Total)
system.cpu.fetch.nisnDist::6                 19907751      0.86%     99.99% # Number of instructions fetched each cycle (Total)
system.cpu.fetch.nisnDist::7                   109244      0.00%     99.99% # Number of instructions fetched each cycle (Total)
system.cpu.fetch.nisnDist::8                   146336      0.01%    100.00% # Number of instructions fetched each cycle (Total)
system.cpu.fetch.nisnDist::overflows                0      0.00%    100.00% # Number of instructions fetched each cycle (Total)
system.cpu.fetch.nisnDist::min_value                0                       # Number of instructions fetched each cycle (Total)
system.cpu.fetch.nisnDist::max_value                8                       # Number of instructions fetched each cycle (Total)
system.cpu.fetch.nisnDist::total           2326723123                       # Number of instructions fetched each cycle (Total)
system.cpu.fetch.branchRate                  0.013611                       # Number of branch fetches per cycle
system.cpu.fetch.rate                        0.095023                       # Number of inst fetches per cycle
system.cpu.icache.demand_hits::.cpu.inst     94650577                       # number of demand (read+write) hits
system.cpu.icache.demand_hits::total         94650577                       # number of demand (read+write) hits
system.cpu.icache.overall_hits::.cpu.inst     94650577                       # number of overall hits
system.cpu.icache.overall_hits::total        94650577                       # number of overall hits
system.cpu.icache.demand_misses::.cpu.inst         3944                       # number of demand (read+write) misses
system.cpu.icache.demand_misses::total           3944                       # number of demand (read+write) misses
system.cpu.icache.overall_misses::.cpu.inst         3944                       # number of overall misses
system.cpu.icache.overall_misses::total          3944                       # number of overall misses
system.cpu.icache.demand_miss_latency::.cpu.inst    232403500                       # number of demand (read+write) miss cycles
system.cpu.icache.demand_miss_latency::total    232403500                       # number of demand (read+write) miss cycles
system.cpu.icache.overall_miss_latency::.cpu.inst    232403500                       # number of overall miss cycles
system.cpu.icache.overall_miss_latency::total    232403500                       # number of overall miss cycles
system.cpu.icache.demand_accesses::.cpu.inst     94654521                       # number of demand (read+write) accesses
system.cpu.icache.demand_accesses::total     94654521                       # number of demand (read+write) accesses
[...]
system.mem_ctrls1.dram.perBankWrBursts::4       440503                       # Per bank write bursts
system.mem_ctrls1.dram.perBankWrBursts::5       440476                       # Per bank write bursts
system.mem_ctrls1.dram.perBankWrBursts::6       440551                       # Per bank write bursts
system.mem_ctrls1.dram.perBankWrBursts::7       440684                       # Per bank write bursts
system.mem_ctrls1.dram.perBankWrBursts::8       440689                       # Per bank write bursts
system.mem_ctrls1.dram.perBankWrBursts::9       440703                       # Per bank write bursts
system.mem_ctrls1.dram.perBankWrBursts::10       440688                       # Per bank write bursts
system.mem_ctrls1.dram.perBankWrBursts::11       440701                       # Per bank write bursts
system.mem_ctrls1.dram.perBankWrBursts::12       440552                       # Per bank write bursts
system.mem_ctrls1.dram.perBankWrBursts::13       440550                       # Per bank write bursts
system.mem_ctrls1.dram.perBankWrBursts::14       440493                       # Per bank write bursts
system.mem_ctrls1.dram.perBankWrBursts::15       440512                       # Per bank write bursts
system.mem_ctrls1.dram.perBankWrBursts::16       440540                       # Per bank write bursts
system.mem_ctrls1.dram.perBankWrBursts::17       440546                       # Per bank write bursts
system.mem_ctrls1.dram.perBankWrBursts::18       440526                       # Per bank write bursts
system.mem_ctrls1.dram.perBankWrBursts::19       440508                       # Per bank write bursts
system.mem_ctrls1.dram.perBankWrBursts::20       440559                       # Per bank write bursts
system.mem_ctrls1.dram.perBankWrBursts::21       440686                       # Per bank write bursts
system.mem_ctrls1.dram.perBankWrBursts::22       440531                       # Per bank write bursts
system.mem_ctrls1.dram.perBankWrBursts::23       440566                       # Per bank write bursts
system.mem_ctrls1.dram.perBankWrBursts::24       440552                       # Per bank write bursts
system.mem_ctrls1.dram.perBankWrBursts::25       440511                       # Per bank write bursts
system.mem_ctrls1.dram.perBankWrBursts::26       440469                       # Per bank write bursts
system.mem_ctrls1.dram.perBankWrBursts::27       440558                       # Per bank write bursts
system.mem_ctrls1.dram.perBankWrBursts::28       440472                       # Per bank write bursts
system.mem_ctrls1.dram.perBankWrBursts::29       440428                       # Per bank write bursts
system.mem_ctrls1.dram.perBankWrBursts::30       440528                       # Per bank write bursts
system.mem_ctrls1.dram.perBankWrBursts::31       440568                       # Per bank write bursts
system.mem_ctrls1.dram.totQLat           157836056390                       # Total ticks spent queuing
system.mem_ctrls1.dram.totBusLat          47094977804                       # Total ticks spent in databus transfers
system.mem_ctrls1.dram.totMemAccLat      405070555714                       # Total ticks spent from burst creation until serviced by the DRAM
system.mem_ctrls1.dram.avgQLat               11167.00                       # Average queueing delay per DRAM burst
system.mem_ctrls1.dram.avgBusLat              3332.00                       # Average bus latency per DRAM burst
system.mem_ctrls1.dram.avgMemAccLat          28659.00                       # Average memory access latency per DRAM burst
system.mem_ctrls1.dram.readRowHits           12537166                       # Number of row buffer hits during reads
system.mem_ctrls1.dram.writeRowHits          10217320                       # Number of row buffer hits during writes
system.mem_ctrls1.dram.readRowHitRate           88.70                       # Row buffer hit rate for reads
system.mem_ctrls1.dram.writeRowHitRate          72.47                       # Row buffer hit rate for writes
system.mem_ctrls1.dram.bytesPerActivate::samples      5477620                       # Bytes accessed per row activation
system.mem_ctrls1.dram.bytesPerActivate::mean   329.861100                       # Bytes accessed per row activation
system.mem_ctrls1.dram.bytesPerActivate::gmean   210.579303                       # Bytes accessed per row activation
system.mem_ctrls1.dram.bytesPerActivate::stdev   314.898810                       # Bytes accessed per row activation
system.mem_ctrls1.dram.bytesPerActivate::0-127      1396226     25.49%     25.49% # Bytes accessed per row activation
system.mem_ctrls1.dram.bytesPerActivate::128-255      1639075     29.92%     55.41% # Bytes accessed per row activation
system.mem_ctrls1.dram.bytesPerActivate::256-383       657757     12.01%     67.42% # Bytes accessed per row activation
system.mem_ctrls1.dram.bytesPerActivate::384-511       397775      7.26%     74.68% # Bytes accessed per row activation
system.mem_ctrls1.dram.bytesPerActivate::512-639       387100      7.07%     81.75% # Bytes accessed per row activation
system.mem_ctrls1.dram.bytesPerActivate::640-767       185180      3.38%     85.13% # Bytes accessed per row activation
system.mem_ctrls1.dram.bytesPerActivate::768-895       127774      2.33%     87.46% # Bytes accessed per row activation
system.mem_ctrls1.dram.bytesPerActivate::896-1023       103169      1.88%     89.35% # Bytes accessed per row activation
system.mem_ctrls1.dram.bytesPerActivate::1024-1151       583564     10.65%    100.00% # Bytes accessed per row activation
system.mem_ctrls1.dram.bytesPerActivate::total      5477620                       # Bytes accessed per row activation
system.mem_ctrls1.dram.bytesRead            904585408                       # Total number of bytes read from DRAM
system.mem_ctrls1.dram.bytesWritten         902269760                       # Total number of bytes written to DRAM
system.mem_ctrls1.dram.avgRdBW             777.542676                       # Average DRAM read bandwidth in MiBytes/s
system.mem_ctrls1.dram.avgWrBW             775.552245                       # Average DRAM write bandwidth in MiBytes/s
system.mem_ctrls1.dram.peakBW                19207.00                       # Theoretical peak bandwidth in MiByte/s
system.mem_ctrls1.dram.busUtil                   8.09                       # Data bus utilization in percentage
system.mem_ctrls1.dram.busUtilRead               4.05                       # Data bus utilization in percentage for reads
system.mem_ctrls1.dram.busUtilWrite              4.04                       # Data bus utilization in percentage for writes
system.mem_ctrls1.dram.pageHitRate              80.60                       # Row buffer hit rate, read and write combined
system.mem_ctrls1.dram.power_state.pwrStateResidencyTicks::UNDEFINED 1163390043500                       # Cumulative time (in ticks) in various power states
system.mem_ctrls1.dram.rank0.actEnergy   8541619265.088478                       # Energy for activate commands per rank (pJ)
system.mem_ctrls1.dram.rank0.preEnergy   11355960865.975235                       # Energy for precharge commands per rank (pJ)
system.mem_ctrls1.dram.rank0.readEnergy  29731841336.472439                       # Energy for read commands per rank (pJ)
system.mem_ctrls1.dram.rank0.writeEnergy 26495205596.833984                       # Energy for write commands per rank (pJ)
system.mem_ctrls1.dram.rank0.refreshEnergy 207007281188.773621                       # Energy for refresh commands per rank (pJ)
system.mem_ctrls1.dram.rank0.actBackEnergy 857605935841.756348                       # Energy for active background per rank (pJ)
system.mem_ctrls1.dram.rank0.preBackEnergy 100509566933.242096                       # Energy for precharge background per rank (pJ)
system.mem_ctrls1.dram.rank0.actPowerDownEnergy            0                       # Energy for active power-down per rank (pJ)
system.mem_ctrls1.dram.rank0.prePowerDownEnergy            0                       # Energy for precharge power-down per rank (pJ)
system.mem_ctrls1.dram.rank0.selfRefreshEnergy            0                       # Energy for self refresh per rank (pJ)
system.mem_ctrls1.dram.rank0.totalEnergy 1241247411028.538086                       # Total energy per rank (pJ)
system.mem_ctrls1.dram.rank0.averagePower  1066.922842                       # Core power per rank (mW)
system.mem_ctrls1.dram.rank0.totalIdleTime            0                       # Total Idle time Per DRAM Rank
system.mem_ctrls1.dram.rank0.pwrStateTime::IDLE 144308844663                       # Time in different power states
system.mem_ctrls1.dram.rank0.pwrStateTime::REF  52298050000                       # Time in different power states
system.mem_ctrls1.dram.rank0.pwrStateTime::SREF            0                       # Time in different power states
system.mem_ctrls1.dram.rank0.pwrStateTime::PRE_PDN            0                       # Time in different power states
system.mem_ctrls1.dram.rank0.pwrStateTime::ACT 966783148837                       # Time in different power states
system.mem_ctrls1.dram.rank0.pwrStateTime::ACT_PDN            0                       # Time in different power states
system.mem_ctrls1.dram.rank1.actEnergy   8541737777.664357                       # Energy for activate commands per rank (pJ)
system.mem_ctrls1.dram.rank1.preEnergy   11356118426.925409                       # Energy for precharge commands per rank (pJ)
system.mem_ctrls1.dram.rank1.readEnergy  29720858643.307175                       # Energy for read commands per rank (pJ)
system.mem_ctrls1.dram.rank1.writeEnergy 26491939463.810059                       # Energy for write commands per rank (pJ)
system.mem_ctrls1.dram.rank1.refreshEnergy 207007281188.773621                       # Energy for refresh commands per rank (pJ)
system.mem_ctrls1.dram.rank1.actBackEnergy 857203825310.328247                       # Energy for active background per rank (pJ)
system.mem_ctrls1.dram.rank1.preBackEnergy 100818533217.274933                       # Energy for precharge background per rank (pJ)
system.mem_ctrls1.dram.rank1.actPowerDownEnergy            0                       # Energy for active power-down per rank (pJ)
system.mem_ctrls1.dram.rank1.prePowerDownEnergy            0                       # Energy for precharge power-down per rank (pJ)
system.mem_ctrls1.dram.rank1.selfRefreshEnergy            0                       # Energy for self refresh per rank (pJ)
system.mem_ctrls1.dram.rank1.totalEnergy 1241140294028.478516                       # Total energy per rank (pJ)
system.mem_ctrls1.dram.rank1.averagePower  1066.830768                       # Core power per rank (mW)
system.mem_ctrls1.dram.rank1.totalIdleTime            0                       # Total Idle time Per DRAM Rank
system.mem_ctrls1.dram.rank1.pwrStateTime::IDLE 144801828633                       # Time in different power states
system.mem_ctrls1.dram.rank1.pwrStateTime::REF  52298050000                       # Time in different power states
system.mem_ctrls1.dram.rank1.pwrStateTime::SREF            0                       # Time in different power states
system.mem_ctrls1.dram.rank1.pwrStateTime::PRE_PDN            0                       # Time in different power states
system.mem_ctrls1.dram.rank1.pwrStateTime::ACT 966290164867                       # Time in different power states
system.mem_ctrls1.dram.rank1.pwrStateTime::ACT_PDN            0                       # Time in different power states
system.mem_ctrls1.power_state.pwrStateResidencyTicks::UNDEFINED 1163390043500                       # Cumulative time (in ticks) in various power states
system.membus.trans_dist::ReadResp               6867                       # Transaction distribution
system.membus.trans_dist::WritebackDirty     28196038                       # Transaction distribution
system.membus.trans_dist::CleanEvict             6237                       # Transaction distribution
system.membus.trans_dist::ReadExReq          28261456                       # Transaction distribution
system.membus.trans_dist::ReadExResp         28261456                       # Transaction distribution
system.membus.trans_dist::ReadSharedReq          6867                       # Transaction distribution
system.membus.pkt_count_system.l2.mem_side_port::system.mem_ctrls0.port     42369504                       # Packet count per connected requestor and responder (bytes)
system.membus.pkt_count_system.l2.mem_side_port::system.mem_ctrls1.port     42369417                       # Packet count per connected requestor and responder (bytes)
system.membus.pkt_count_system.l2.mem_side_port::total     84738921                       # Packet count per connected requestor and responder (bytes)
system.membus.pkt_count::total               84738921                       # Packet count per connected requestor and responder (bytes)
system.membus.pkt_size_system.l2.mem_side_port::system.mem_ctrls0.port   1806860032                       # Cumulative packet size per connected requestor and responder (bytes)
system.membus.pkt_size_system.l2.mem_side_port::system.mem_ctrls1.port   1806859072                       # Cumulative packet size per connected requestor and responder (bytes)
system.membus.pkt_size_system.l2.mem_side_port::total   3613719104                       # Cumulative packet size per connected requestor and responder (bytes)
system.membus.pkt_size::total              3613719104                       # Cumulative packet size per connected requestor and responder (bytes)
system.membus.snoops                                0                       # Total snoops (count)
system.membus.snoopTraffic                          0                       # Total snoop traffic (bytes)
system.membus.snoop_fanout::samples          28268323                       # Request fanout histogram
system.membus.snoop_fanout::mean                    0                       # Request fanout histogram
system.membus.snoop_fanout::stdev                   0                       # Request fanout histogram
system.membus.snoop_fanout::underflows              0      0.00%      0.00% # Request fanout histogram
system.membus.snoop_fanout::0                28268323    100.00%    100.00% # Request fanout histogram
system.membus.snoop_fanout::1                       0      0.00%    100.00% # Request fanout histogram
system.membus.snoop_fanout::overflows               0      0.00%    100.00% # Request fanout histogram
system.membus.snoop_fanout::min_value               0                       # Request fanout histogram
system.membus.snoop_fanout::max_value               0                       # Request fanout histogram
system.membus.snoop_fanout::total            28268323                       # Request fanout histogram
system.membus.power_state.pwrStateResidencyTicks::UNDEFINED 1163390043500                       # Cumulative time (in ticks) in various power states
system.membus.reqLayer4.occupancy         87397201587                       # Layer occupancy (ticks)
system.membus.reqLayer4.utilization               7.5                       # Layer utilization (%)
system.membus.reqLayer5.occupancy         87366723214                       # Layer occupancy (ticks)
system.membus.reqLayer5.utilization               7.5                       # Layer utilization (%)
system.membus.respLayer1.occupancy       149836279763                       # Layer occupancy (ticks)
system.membus.respLayer1.utilization             12.9                       # Layer utilization (%)
system.tol2bus.trans_dist::ReadResp             10387                       # Transaction distribution
system.tol2bus.trans_dist::WritebackDirty     56459872                       # Transaction distribution
system.tol2bus.trans_dist::WritebackClean         8064                       # Transaction distribution
system.tol2bus.trans_dist::CleanEvict            6749                       # Transaction distribution
system.tol2bus.trans_dist::HardPFReq               46                       # Transaction distribution
system.tol2bus.trans_dist::ReadExReq         28262127                       # Transaction distribution
system.tol2bus.trans_dist::ReadExResp        28262127                       # Transaction distribution
system.tol2bus.trans_dist::ReadCleanReq          2997                       # Transaction distribution
system.tol2bus.trans_dist::ReadSharedReq         7390                       # Transaction distribution
system.tol2bus.pkt_count_system.cpu.icache.mem_side_port::system.l2.cpu_side_port         8477                       # Packet count per connected requestor and responder (bytes)
system.tol2bus.pkt_count_system.cpu.dcache.mem_side_port::system.l2.cpu_side_port     84808447                       # Packet count per connected requestor and responder (bytes)
system.tol2bus.pkt_count::total              84816924                       # Packet count per connected requestor and responder (bytes)
system.tol2bus.pkt_size_system.cpu.icache.mem_side_port::system.l2.cpu_side_port       350720                       # Cumulative packet size per connected requestor and responder (bytes)
system.tol2bus.pkt_size_system.cpu.dcache.mem_side_port::system.l2.cpu_side_port   3618491520                       # Cumulative packet size per connected requestor and responder (bytes)
system.tol2bus.pkt_size::total             3618842240                       # Cumulative packet size per connected requestor and responder (bytes)
system.tol2bus.snoops                        28202835                       # Total snoops (count)
system.tol2bus.snoopTraffic                1804546560                       # Total snoop traffic (bytes)
system.tol2bus.snoop_fanout::samples         56475347                       # Request fanout histogram
system.tol2bus.snoop_fanout::mean            0.000009                       # Request fanout histogram
system.tol2bus.snoop_fanout::stdev           0.003058                       # Request fanout histogram
system.tol2bus.snoop_fanout::underflows             0      0.00%      0.00% # Request fanout histogram
system.tol2bus.snoop_fanout::0               56474819    100.00%    100.00% # Request fanout histogram
system.tol2bus.snoop_fanout::1                    528      0.00%    100.00% # Request fanout histogram
system.tol2bus.snoop_fanout::2                      0      0.00%    100.00% # Request fanout histogram
system.tol2bus.snoop_fanout::3                      0      0.00%    100.00% # Request fanout histogram
system.tol2bus.snoop_fanout::4                      0      0.00%    100.00% # Request fanout histogram
system.tol2bus.snoop_fanout::overflows              0      0.00%    100.00% # Request fanout histogram
system.tol2bus.snoop_fanout::min_value              0                       # Request fanout histogram
system.tol2bus.snoop_fanout::max_value              1                       # Request fanout histogram
system.tol2bus.snoop_fanout::total           56475347                       # Request fanout histogram
system.tol2bus.power_state.pwrStateResidencyTicks::UNDEFINED 1163390043500                       # Cumulative time (in ticks) in various power states
system.tol2bus.reqLayer0.occupancy        56544104000                       # Layer occupancy (ticks)
system.tol2bus.reqLayer0.utilization              4.9                       # Layer utilization (%)
system.tol2bus.respLayer0.occupancy           4502985                       # Layer occupancy (ticks)
system.tol2bus.respLayer0.utilization             0.0                       # Layer utilization (%)
system.tol2bus.respLayer1.occupancy       42404277496                       # Layer occupancy (ticks)
system.tol2bus.respLayer1.utilization             3.6                       # Layer utilization (%)
system.voltage_domain.voltage                       1                       # Voltage in Volts

---------- End Simulation Statistics   ----------
