
---------- Begin Simulation Statistics ----------
final_tick                                68274856500                       # Number of ticks from beginning of simulation (restored from checkpoints and never reset)
host_mem_usage                               67528604                       # Number of bytes of host memory used
host_seconds                                  1072.42                       # Real time elapsed on the host
host_tick_rate                               63664075                       # Simulator tick rate (ticks/s)
sim_freq                                 1000000000000                       # Frequency of simulated ticks
sim_seconds                                  0.068275                       # Number of seconds simulated
sim_ticks                                 68274856500                       # Number of ticks simulated
system.cpu.cc_regfile_reads                 247802625                       # number of cc regfile reads
system.cpu.cc_regfile_writes                122518279                       # number of cc regfile writes
system.cpu.committedInsts::0                100000004                       # Number of Instructions Simulated
system.cpu.committedInsts::1                100000001                       # Number of Instructions Simulated
system.cpu.committedInsts::total            200000005                       # Number of Instructions Simulated
system.cpu.committedOps::0                  189056788                       # Number of Ops (including micro ops) Simulated
system.cpu.committedOps::1                  189056781                       # Number of Ops (including micro ops) Simulated
system.cpu.committedOps::total              378113569                       # Number of Ops (including micro ops) Simulated
system.cpu.cpi::0                            1.365497                       # CPI: Cycles Per Instruction
system.cpu.cpi::1                            1.365497                       # CPI: Cycles Per Instruction
system.cpu.cpi_total                         0.682749                       # CPI: Total CPI of All Threads
system.cpu.fp_regfile_reads                  10791670                       # number of floating regfile reads
system.cpu.fp_regfile_writes                  6405215                       # number of floating regfile writes
system.cpu.idleCycles                           68161                       # Total number of cycles that the CPU has spent unscheduled due to idling
system.cpu.iew.branchMispredicts              1974190                       # Number of branch mispredicts detected at execute
system.cpu.iew.exec_branches::0              22849282                       # Number of branches executed
system.cpu.iew.exec_branches::1              22863109                       # Number of branches executed
system.cpu.iew.exec_branches::total          45712391                       # Number of branches executed
system.cpu.iew.exec_nop::0                          0                       # number of nop insts executed
system.cpu.iew.exec_nop::1                          0                       # number of nop insts executed
system.cpu.iew.exec_nop::total                      0                       # number of nop insts executed
system.cpu.iew.exec_rate                     3.021364                       # Inst execution rate
system.cpu.iew.exec_refs::0                  42234804                       # number of memory reference insts executed
system.cpu.iew.exec_refs::1                  42207483                       # number of memory reference insts executed
system.cpu.iew.exec_refs::total              84442287                       # number of memory reference insts executed
system.cpu.iew.exec_stores::0                16736741                       # Number of stores executed
system.cpu.iew.exec_stores::1                16748695                       # Number of stores executed
system.cpu.iew.exec_stores::total            33485436                       # Number of stores executed
system.cpu.iew.exec_swp::0                          0                       # number of swp insts executed
system.cpu.iew.exec_swp::1                          0                       # number of swp insts executed
system.cpu.iew.exec_swp::total                      0                       # number of swp insts executed
system.cpu.iew.iewBlockCycles                11312651                       # Number of cycles IEW is blocking
system.cpu.iew.iewDispLoadInsts              54223414                       # Number of dispatched load instructions
system.cpu.iew.iewDispNonSpecInsts                131                       # Number of dispatched non-speculative instructions
system.cpu.iew.iewDispSquashedInsts                 0                       # Number of squashed instructions skipped by dispatch
system.cpu.iew.iewDispStoreInsts             35202259                       # Number of dispatched store instructions
system.cpu.iew.iewDispatchedInsts           441828584                       # Number of instructions dispatched to IQ
system.cpu.iew.iewExecLoadInsts::0           25498063                       # Number of load instructions executed
system.cpu.iew.iewExecLoadInsts::1           25458788                       # Number of load instructions executed
system.cpu.iew.iewExecLoadInsts::total       50956851                       # Number of load instructions executed
system.cpu.iew.iewExecSquashedInsts           2654877                       # Number of squashed instructions skipped in execute
system.cpu.iew.iewExecutedInsts             412566385                       # Number of executed instructions
system.cpu.iew.iewIQFullEvents                 125145                       # Number of times the IQ has become full, causing a stall
system.cpu.iew.iewIdleCycles                        0                       # Number of cycles IEW is idle
system.cpu.iew.iewLSQFullEvents                 22810                       # Number of times the LSQ has become full, causing a stall
system.cpu.iew.iewSquashCycles                1736212                       # Number of cycles IEW is squashing
system.cpu.iew.iewUnblockCycles                418785                       # Number of cycles IEW is unblocking
system.cpu.iew.memOrderViolationEvents           3236                       # Number of memory order violations
system.cpu.iew.predictedNotTakenIncorrect      1424655                       # Number of branches that were predicted not taken incorrectly
system.cpu.iew.predictedTakenIncorrect         549535                       # Number of branches that were predicted taken incorrectly
system.cpu.iew.wb_consumers::0              237758234                       # num instructions consuming a value
system.cpu.iew.wb_consumers::1              237761996                       # num instructions consuming a value
system.cpu.iew.wb_consumers::total          475520230                       # num instructions consuming a value
system.cpu.iew.wb_count::0                  205867201                       # cumulative count of insts written-back
system.cpu.iew.wb_count::1                  205697910                       # cumulative count of insts written-back
system.cpu.iew.wb_count::total              411565111                       # cumulative count of insts written-back
system.cpu.iew.wb_fanout::0                  0.611648                       # average fanout of values written-back
system.cpu.iew.wb_fanout::1                  0.611100                       # average fanout of values written-back
system.cpu.iew.wb_fanout::total              0.611374                       # average fanout of values written-back
system.cpu.iew.wb_producers::0              145424270                       # num instructions producing a value
system.cpu.iew.wb_producers::1              145296438                       # num instructions producing a value
system.cpu.iew.wb_producers::total          290720708                       # num instructions producing a value
system.cpu.iew.wb_rate::0                    1.507636                       # insts written-back per cycle
system.cpu.iew.wb_rate::1                    1.506396                       # insts written-back per cycle
system.cpu.iew.wb_rate::total                3.014031                       # insts written-back per cycle
system.cpu.iew.wb_sent::0                   205924850                       # cumulative count of insts sent to commit
system.cpu.iew.wb_sent::1                   205755277                       # cumulative count of insts sent to commit
system.cpu.iew.wb_sent::total               411680127                       # cumulative count of insts sent to commit
system.cpu.int_regfile_reads                634710632                       # number of integer regfile reads
system.cpu.int_regfile_writes               328175021                       # number of integer regfile writes
system.cpu.ipc::0                            0.732334                       # IPC: Instructions Per Cycle
system.cpu.ipc::1                            0.732334                       # IPC: Instructions Per Cycle
system.cpu.ipc_total                         1.464668                       # IPC: Total IPC of All Threads
system.cpu.iq.FU_type_0::No_OpClass           1776779      0.85%      0.85% # Type of FU issued
system.cpu.iq.FU_type_0::IntAlu             159050543     75.94%     76.79% # Type of FU issued
system.cpu.iq.FU_type_0::IntMult               993444      0.47%     77.26% # Type of FU issued
system.cpu.iq.FU_type_0::IntDiv                803901      0.38%     77.65% # Type of FU issued
system.cpu.iq.FU_type_0::FloatAdd              494026      0.24%     77.88% # Type of FU issued
system.cpu.iq.FU_type_0::FloatCmp                   0      0.00%     77.88% # Type of FU issued
system.cpu.iq.FU_type_0::FloatCvt                  32      0.00%     77.88% # Type of FU issued
system.cpu.iq.FU_type_0::FloatMult                  0      0.00%     77.88% # Type of FU issued
system.cpu.iq.FU_type_0::FloatMultAcc               0      0.00%     77.88% # Type of FU issued
system.cpu.iq.FU_type_0::FloatDiv                   0      0.00%     77.88% # Type of FU issued
system.cpu.iq.FU_type_0::FloatMisc                  0      0.00%     77.88% # Type of FU issued
system.cpu.iq.FU_type_0::FloatSqrt                  0      0.00%     77.88% # Type of FU issued
system.cpu.iq.FU_type_0::SimdAdd                  456      0.00%     77.88% # Type of FU issued
system.cpu.iq.FU_type_0::SimdAddAcc                 0      0.00%     77.88% # Type of FU issued
system.cpu.iq.FU_type_0::SimdAlu                97828      0.05%     77.93% # Type of FU issued
system.cpu.iq.FU_type_0::SimdCmp                   20      0.00%     77.93% # Type of FU issued
system.cpu.iq.FU_type_0::SimdCvt               479431      0.23%     78.16% # Type of FU issued
system.cpu.iq.FU_type_0::SimdMisc             1267836      0.61%     78.76% # Type of FU issued
system.cpu.iq.FU_type_0::SimdMult                   0      0.00%     78.76% # Type of FU issued
system.cpu.iq.FU_type_0::SimdMultAcc                0      0.00%     78.76% # Type of FU issued
system.cpu.iq.FU_type_0::SimdShift                118      0.00%     78.76% # Type of FU issued
system.cpu.iq.FU_type_0::SimdShiftAcc               0      0.00%     78.76% # Type of FU issued
system.cpu.iq.FU_type_0::SimdDiv                    0      0.00%     78.76% # Type of FU issued
system.cpu.iq.FU_type_0::SimdSqrt                   0      0.00%     78.76% # Type of FU issued
system.cpu.iq.FU_type_0::SimdFloatAdd               0      0.00%     78.76% # Type of FU issued
system.cpu.iq.FU_type_0::SimdFloatAlu               0      0.00%     78.76% # Type of FU issued
system.cpu.iq.FU_type_0::SimdFloatCmp               0      0.00%     78.76% # Type of FU issued
system.cpu.iq.FU_type_0::SimdFloatCvt               4      0.00%     78.76% # Type of FU issued
system.cpu.iq.FU_type_0::SimdFloatDiv               0      0.00%     78.76% # Type of FU issued
system.cpu.iq.FU_type_0::SimdFloatMisc              0      0.00%     78.76% # Type of FU issued
system.cpu.iq.FU_type_0::SimdFloatMult              2      0.00%     78.76% # Type of FU issued
system.cpu.iq.FU_type_0::SimdFloatMultAcc            0      0.00%     78.76% # Type of FU issued
system.cpu.iq.FU_type_0::SimdFloatSqrt              0      0.00%     78.76% # Type of FU issued
system.cpu.iq.FU_type_0::SimdReduceAdd              0      0.00%     78.76% # Type of FU issued
system.cpu.iq.FU_type_0::SimdReduceAlu              0      0.00%     78.76% # Type of FU issued
system.cpu.iq.FU_type_0::SimdReduceCmp              0      0.00%     78.76% # Type of FU issued
system.cpu.iq.FU_type_0::SimdFloatReduceAdd            0      0.00%     78.76% # Type of FU issued
system.cpu.iq.FU_type_0::SimdFloatReduceCmp            0      0.00%     78.76% # Type of FU issued
system.cpu.iq.FU_type_0::SimdAes                    0      0.00%     78.76% # Type of FU issued
system.cpu.iq.FU_type_0::SimdAesMix                 0      0.00%     78.76% # Type of FU issued
system.cpu.iq.FU_type_0::SimdSha1Hash               0      0.00%     78.76% # Type of FU issued
system.cpu.iq.FU_type_0::SimdSha1Hash2              0      0.00%     78.76% # Type of FU issued
system.cpu.iq.FU_type_0::SimdSha256Hash             0      0.00%     78.76% # Type of FU issued
system.cpu.iq.FU_type_0::SimdSha256Hash2            0      0.00%     78.76% # Type of FU issued
system.cpu.iq.FU_type_0::SimdShaSigma2              0      0.00%     78.76% # Type of FU issued
system.cpu.iq.FU_type_0::SimdShaSigma3              0      0.00%     78.76% # Type of FU issued
system.cpu.iq.FU_type_0::SimdPredAlu                0      0.00%     78.76% # Type of FU issued
system.cpu.iq.FU_type_0::MemRead             25567560     12.21%     90.97% # Type of FU issued
system.cpu.iq.FU_type_0::MemWrite            16186624      7.73%     98.70% # Type of FU issued
system.cpu.iq.FU_type_0::FloatMemRead         1265189      0.60%     99.30% # Type of FU issued
system.cpu.iq.FU_type_0::FloatMemWrite        1458886      0.70%    100.00% # Type of FU issued
system.cpu.iq.FU_type_0::IprAccess                  0      0.00%    100.00% # Type of FU issued
system.cpu.iq.FU_type_0::InstPrefetch               0      0.00%    100.00% # Type of FU issued
system.cpu.iq.FU_type_0::total              209442679                       # Type of FU issued
system.cpu.iq.FU_type_1::No_OpClass           1767979      0.84%      0.84% # Type of FU issued
system.cpu.iq.FU_type_1::IntAlu             158872342     75.92%     76.77% # Type of FU issued
system.cpu.iq.FU_type_1::IntMult               994897      0.48%     77.25% # Type of FU issued
system.cpu.iq.FU_type_1::IntDiv                803898      0.38%     77.63% # Type of FU issued
system.cpu.iq.FU_type_1::FloatAdd              508200      0.24%     77.87% # Type of FU issued
system.cpu.iq.FU_type_1::FloatCmp                   0      0.00%     77.87% # Type of FU issued
system.cpu.iq.FU_type_1::FloatCvt                  32      0.00%     77.87% # Type of FU issued
system.cpu.iq.FU_type_1::FloatMult                  0      0.00%     77.87% # Type of FU issued
system.cpu.iq.FU_type_1::FloatMultAcc               0      0.00%     77.87% # Type of FU issued
system.cpu.iq.FU_type_1::FloatDiv                   0      0.00%     77.87% # Type of FU issued
system.cpu.iq.FU_type_1::FloatMisc                  0      0.00%     77.87% # Type of FU issued
system.cpu.iq.FU_type_1::FloatSqrt                  0      0.00%     77.87% # Type of FU issued
system.cpu.iq.FU_type_1::SimdAdd                  473      0.00%     77.87% # Type of FU issued
system.cpu.iq.FU_type_1::SimdAddAcc                 0      0.00%     77.87% # Type of FU issued
system.cpu.iq.FU_type_1::SimdAlu                97833      0.05%     77.92% # Type of FU issued
system.cpu.iq.FU_type_1::SimdCmp                   20      0.00%     77.92% # Type of FU issued
system.cpu.iq.FU_type_1::SimdCvt               448345      0.21%     78.13% # Type of FU issued
system.cpu.iq.FU_type_1::SimdMisc             1256330      0.60%     78.73% # Type of FU issued
system.cpu.iq.FU_type_1::SimdMult                   0      0.00%     78.73% # Type of FU issued
system.cpu.iq.FU_type_1::SimdMultAcc                0      0.00%     78.73% # Type of FU issued
system.cpu.iq.FU_type_1::SimdShift                119      0.00%     78.73% # Type of FU issued
system.cpu.iq.FU_type_1::SimdShiftAcc               0      0.00%     78.73% # Type of FU issued
system.cpu.iq.FU_type_1::SimdDiv                    0      0.00%     78.73% # Type of FU issued
system.cpu.iq.FU_type_1::SimdSqrt                   0      0.00%     78.73% # Type of FU issued
system.cpu.iq.FU_type_1::SimdFloatAdd               0      0.00%     78.73% # Type of FU issued
system.cpu.iq.FU_type_1::SimdFloatAlu               0      0.00%     78.73% # Type of FU issued
system.cpu.iq.FU_type_1::SimdFloatCmp               0      0.00%     78.73% # Type of FU issued
system.cpu.iq.FU_type_1::SimdFloatCvt               4      0.00%     78.73% # Type of FU issued
system.cpu.iq.FU_type_1::SimdFloatDiv               0      0.00%     78.73% # Type of FU issued
system.cpu.iq.FU_type_1::SimdFloatMisc              0      0.00%     78.73% # Type of FU issued
system.cpu.iq.FU_type_1::SimdFloatMult              2      0.00%     78.73% # Type of FU issued
system.cpu.iq.FU_type_1::SimdFloatMultAcc            0      0.00%     78.73% # Type of FU issued
system.cpu.iq.FU_type_1::SimdFloatSqrt              0      0.00%     78.73% # Type of FU issued
system.cpu.iq.FU_type_1::SimdReduceAdd              0      0.00%     78.73% # Type of FU issued
system.cpu.iq.FU_type_1::SimdReduceAlu              0      0.00%     78.73% # Type of FU issued
system.cpu.iq.FU_type_1::SimdReduceCmp              0      0.00%     78.73% # Type of FU issued
system.cpu.iq.FU_type_1::SimdFloatReduceAdd            0      0.00%     78.73% # Type of FU issued
system.cpu.iq.FU_type_1::SimdFloatReduceCmp            0      0.00%     78.73% # Type of FU issued
system.cpu.iq.FU_type_1::SimdAes                    0      0.00%     78.73% # Type of FU issued
system.cpu.iq.FU_type_1::SimdAesMix                 0      0.00%     78.73% # Type of FU issued
system.cpu.iq.FU_type_1::SimdSha1Hash               0      0.00%     78.73% # Type of FU issued
system.cpu.iq.FU_type_1::SimdSha1Hash2              0      0.00%     78.73% # Type of FU issued
system.cpu.iq.FU_type_1::SimdSha256Hash             0      0.00%     78.73% # Type of FU issued
system.cpu.iq.FU_type_1::SimdSha256Hash2            0      0.00%     78.73% # Type of FU issued
system.cpu.iq.FU_type_1::SimdShaSigma2              0      0.00%     78.73% # Type of FU issued
system.cpu.iq.FU_type_1::SimdShaSigma3              0      0.00%     78.73% # Type of FU issued
system.cpu.iq.FU_type_1::SimdPredAlu                0      0.00%     78.73% # Type of FU issued
system.cpu.iq.FU_type_1::MemRead             25714771     12.29%     91.02% # Type of FU issued
system.cpu.iq.FU_type_1::MemWrite            16138088      7.71%     98.74% # Type of FU issued
system.cpu.iq.FU_type_1::FloatMemRead         1185973      0.57%     99.30% # Type of FU issued
system.cpu.iq.FU_type_1::FloatMemWrite        1460084      0.70%    100.00% # Type of FU issued
system.cpu.iq.FU_type_1::IprAccess                  0      0.00%    100.00% # Type of FU issued
system.cpu.iq.FU_type_1::InstPrefetch               0      0.00%    100.00% # Type of FU issued
system.cpu.iq.FU_type_1::total              209249390                       # Type of FU issued
system.cpu.iq.FU_type::total                418692069      0.00%      0.00% # Type of FU issued
system.cpu.iq.fp_alu_accesses                17403383                       # Number of floating point alu accesses
system.cpu.iq.fp_inst_queue_reads            28192928                       # Number of floating instruction queue reads
system.cpu.iq.fp_inst_queue_wakeup_accesses     10099121                       # Number of floating instruction queue wakeup accesses
system.cpu.iq.fp_inst_queue_writes           13649062                       # Number of floating instruction queue writes
system.cpu.iq.fu_busy_cnt::0                118157059                       # FU busy when requested
system.cpu.iq.fu_busy_cnt::1                117718958                       # FU busy when requested
system.cpu.iq.fu_busy_cnt::total            235876017                       # FU busy when requested
system.cpu.iq.fu_busy_rate::0                0.282205                       # FU busy rate (busy events/executed inst)
system.cpu.iq.fu_busy_rate::1                0.281159                       # FU busy rate (busy events/executed inst)
system.cpu.iq.fu_busy_rate::total            0.563364                       # FU busy rate (busy events/executed inst)
system.cpu.iq.fu_full::No_OpClass                   0      0.00%      0.00% # attempts to use FU when none available
system.cpu.iq.fu_full::IntAlu               132793837     56.30%     56.30% # attempts to use FU when none available
system.cpu.iq.fu_full::IntMult                1237107      0.52%     56.82% # attempts to use FU when none available
system.cpu.iq.fu_full::IntDiv                 7120782      3.02%     59.84% # attempts to use FU when none available
system.cpu.iq.fu_full::FloatAdd                601185      0.25%     60.10% # attempts to use FU when none available
system.cpu.iq.fu_full::FloatCmp                     0      0.00%     60.10% # attempts to use FU when none available
system.cpu.iq.fu_full::FloatCvt                    25      0.00%     60.10% # attempts to use FU when none available
system.cpu.iq.fu_full::FloatMult                    0      0.00%     60.10% # attempts to use FU when none available
system.cpu.iq.fu_full::FloatMultAcc                 0      0.00%     60.10% # attempts to use FU when none available
system.cpu.iq.fu_full::FloatDiv                     0      0.00%     60.10% # attempts to use FU when none available
system.cpu.iq.fu_full::FloatMisc                    0      0.00%     60.10% # attempts to use FU when none available
system.cpu.iq.fu_full::FloatSqrt                    0      0.00%     60.10% # attempts to use FU when none available
system.cpu.iq.fu_full::SimdAdd                    841      0.00%     60.10% # attempts to use FU when none available
system.cpu.iq.fu_full::SimdAddAcc                   0      0.00%     60.10% # attempts to use FU when none available
system.cpu.iq.fu_full::SimdAlu                  80318      0.03%     60.13% # attempts to use FU when none available
system.cpu.iq.fu_full::SimdCmp                     42      0.00%     60.13% # attempts to use FU when none available
system.cpu.iq.fu_full::SimdCvt                1187716      0.50%     60.63% # attempts to use FU when none available
system.cpu.iq.fu_full::SimdMisc               1560878      0.66%     61.30% # attempts to use FU when none available
system.cpu.iq.fu_full::SimdMult                     0      0.00%     61.30% # attempts to use FU when none available
system.cpu.iq.fu_full::SimdMultAcc                  0      0.00%     61.30% # attempts to use FU when none available
system.cpu.iq.fu_full::SimdShift                  253      0.00%     61.30% # attempts to use FU when none available
system.cpu.iq.fu_full::SimdShiftAcc                 0      0.00%     61.30% # attempts to use FU when none available
system.cpu.iq.fu_full::SimdDiv                      0      0.00%     61.30% # attempts to use FU when none available
system.cpu.iq.fu_full::SimdSqrt                     0      0.00%     61.30% # attempts to use FU when none available
system.cpu.iq.fu_full::SimdFloatAdd                 0      0.00%     61.30% # attempts to use FU when none available
system.cpu.iq.fu_full::SimdFloatAlu                 0      0.00%     61.30% # attempts to use FU when none available
system.cpu.iq.fu_full::SimdFloatCmp                 0      0.00%     61.30% # attempts to use FU when none available
system.cpu.iq.fu_full::SimdFloatCvt                 8      0.00%     61.30% # attempts to use FU when none available
system.cpu.iq.fu_full::SimdFloatDiv                 0      0.00%     61.30% # attempts to use FU when none available
system.cpu.iq.fu_full::SimdFloatMisc                0      0.00%     61.30% # attempts to use FU when none available
system.cpu.iq.fu_full::SimdFloatMult                4      0.00%     61.30% # attempts to use FU when none available
system.cpu.iq.fu_full::SimdFloatMultAcc             0      0.00%     61.30% # attempts to use FU when none available
system.cpu.iq.fu_full::SimdFloatSqrt                0      0.00%     61.30% # attempts to use FU when none available
system.cpu.iq.fu_full::SimdReduceAdd                0      0.00%     61.30% # attempts to use FU when none available
system.cpu.iq.fu_full::SimdReduceAlu                0      0.00%     61.30% # attempts to use FU when none available
system.cpu.iq.fu_full::SimdReduceCmp                0      0.00%     61.30% # attempts to use FU when none available
system.cpu.iq.fu_full::SimdFloatReduceAdd            0      0.00%     61.30% # attempts to use FU when none available
system.cpu.iq.fu_full::SimdFloatReduceCmp            0      0.00%     61.30% # attempts to use FU when none available
system.cpu.iq.fu_full::SimdAes                      0      0.00%     61.30% # attempts to use FU when none available
system.cpu.iq.fu_full::SimdAesMix                   0      0.00%     61.30% # attempts to use FU when none available
system.cpu.iq.fu_full::SimdSha1Hash                 0      0.00%     61.30% # attempts to use FU when none available
system.cpu.iq.fu_full::SimdSha1Hash2                0      0.00%     61.30% # attempts to use FU when none available
system.cpu.iq.fu_full::SimdSha256Hash               0      0.00%     61.30% # attempts to use FU when none available
system.cpu.iq.fu_full::SimdSha256Hash2              0      0.00%     61.30% # attempts to use FU when none available
system.cpu.iq.fu_full::SimdShaSigma2                0      0.00%     61.30% # attempts to use FU when none available
system.cpu.iq.fu_full::SimdShaSigma3                0      0.00%     61.30% # attempts to use FU when none available
system.cpu.iq.fu_full::SimdPredAlu                  0      0.00%     61.30% # attempts to use FU when none available
system.cpu.iq.fu_full::MemRead               56090236     23.78%     85.08% # attempts to use FU when none available
system.cpu.iq.fu_full::MemWrite              35202785     14.92%    100.00% # attempts to use FU when none available
system.cpu.iq.fu_full::FloatMemRead                 0      0.00%    100.00% # attempts to use FU when none available
system.cpu.iq.fu_full::FloatMemWrite                0      0.00%    100.00% # attempts to use FU when none available
system.cpu.iq.fu_full::IprAccess                    0      0.00%    100.00% # attempts to use FU when none available
system.cpu.iq.fu_full::InstPrefetch                 0      0.00%    100.00% # attempts to use FU when none available
system.cpu.iq.int_alu_accesses              869011326                       # Number of integer alu accesses
system.cpu.iq.int_inst_queue_reads         1423885299                       # Number of integer instruction queue reads
system.cpu.iq.int_inst_queue_wakeup_accesses    401465990                       # Number of integer instruction queue wakeup accesses
system.cpu.iq.int_inst_queue_writes         491897750                       # Number of integer instruction queue writes
system.cpu.iq.iqInstsAdded                  441828271                       # Number of instructions added to the IQ (excludes non-spec)
system.cpu.iq.iqInstsIssued                 418692069                       # Number of instructions issued
system.cpu.iq.iqNonSpecInstsAdded                 313                       # Number of non-speculative instructions added to the IQ
system.cpu.iq.iqSquashedInstsExamined        63715009                       # Number of squashed instructions iterated over during squash; mainly for profiling
system.cpu.iq.iqSquashedInstsIssued           6945138                       # Number of squashed instructions issued
system.cpu.iq.iqSquashedNonSpecRemoved            181                       # Number of squashed non-spec instructions that were removed
system.cpu.iq.iqSquashedOperandsExamined     96490085                       # Number of squashed operands that are examined and possibly removed from graph
system.cpu.iq.issued_per_cycle::samples     136481553                       # Number of insts issued each cycle
system.cpu.iq.issued_per_cycle::mean         3.067756                       # Number of insts issued each cycle
system.cpu.iq.issued_per_cycle::stdev        1.980819                       # Number of insts issued each cycle
system.cpu.iq.issued_per_cycle::underflows            0      0.00%      0.00% # Number of insts issued each cycle
system.cpu.iq.issued_per_cycle::0            23732407     17.39%     17.39% # Number of insts issued each cycle
system.cpu.iq.issued_per_cycle::1            14280194     10.46%     27.85% # Number of insts issued each cycle
system.cpu.iq.issued_per_cycle::2            12979261      9.51%     37.36% # Number of insts issued each cycle
system.cpu.iq.issued_per_cycle::3            14817662     10.86%     48.22% # Number of insts issued each cycle
system.cpu.iq.issued_per_cycle::4            31528615     23.10%     71.32% # Number of insts issued each cycle
system.cpu.iq.issued_per_cycle::5            28490911     20.88%     92.19% # Number of insts issued each cycle
system.cpu.iq.issued_per_cycle::6             9366503      6.86%     99.06% # Number of insts issued each cycle
system.cpu.iq.issued_per_cycle::7             1055666      0.77%     99.83% # Number of insts issued each cycle
system.cpu.iq.issued_per_cycle::8              230334      0.17%    100.00% # Number of insts issued each cycle
system.cpu.iq.issued_per_cycle::overflows            0      0.00%    100.00% # Number of insts issued each cycle
system.cpu.iq.issued_per_cycle::min_value            0                       # Number of insts issued each cycle
system.cpu.iq.issued_per_cycle::max_value            8                       # Number of insts issued each cycle
system.cpu.iq.issued_per_cycle::total       136481553                       # Number of insts issued each cycle
system.cpu.iq.rate                           3.066224                       # Inst issue rate
system.cpu.iq.vec_alu_accesses                      0                       # Number of vector alu accesses
system.cpu.iq.vec_inst_queue_reads                  0                       # Number of vector instruction queue reads
system.cpu.iq.vec_inst_queue_wakeup_accesses            0                       # Number of vector instruction queue wakeup accesses
system.cpu.iq.vec_inst_queue_writes                 0                       # Number of vector instruction queue writes
system.cpu.memDep0.conflictingLoads            814236                       # Number of conflicting loads.
system.cpu.memDep0.conflictingStores           145120                       # Number of conflicting stores.
system.cpu.memDep0.insertedLoads             27159759                       # Number of loads inserted to the mem dependence unit.
system.cpu.memDep0.insertedStores            17584164                       # Number of stores inserted to the mem dependence unit.
system.cpu.memDep1.conflictingLoads            816131                       # Number of conflicting loads.
system.cpu.memDep1.conflictingStores           144989                       # Number of conflicting stores.
system.cpu.memDep1.insertedLoads             27063655                       # Number of loads inserted to the mem dependence unit.
system.cpu.memDep1.insertedStores            17618095                       # Number of stores inserted to the mem dependence unit.
system.cpu.misc_regfile_reads               180708653                       # number of misc regfile reads
system.cpu.misc_regfile_writes                     36                       # number of misc regfile writes
system.cpu.numCycles                        136549714                       # number of cpu cycles simulated
system.cpu.numWorkItemsCompleted                    0                       # number of work items this cpu completed
system.cpu.numWorkItemsStarted                      0                       # number of work items this cpu started
system.cpu.timesIdled                            1237                       # Number of times that the entire CPU went into an idle state and unscheduled itself
system.cpu.workload0.numSyscalls                  128                       # Number of system calls
system.cpu.workload1.numSyscalls                  128                       # Number of system calls
system.membus.snoop_filter.hit_multi_requests            0                       # Number of requests hitting in the snoop filter with multiple (>1) holders of the requested data.
system.membus.snoop_filter.hit_multi_snoops            0                       # Number of snoops hitting in the snoop filter with multiple (>1) holders of the requested data.
system.membus.snoop_filter.hit_single_requests       350601                       # Number of requests hitting in the snoop filter with a single holder of the requested data.
system.membus.snoop_filter.hit_single_snoops            0                       # Number of snoops hitting in the snoop filter with a single holder of the requested data.
system.membus.snoop_filter.tot_requests        767255                       # Total number of requests made to the snoop filter.
system.membus.snoop_filter.tot_snoops               0                       # Total number of snoops made to the snoop filter.
system.tol2bus.snoop_filter.hit_multi_requests           18                       # Number of requests hitting in the snoop filter with multiple (>1) holders of the requested data.
system.tol2bus.snoop_filter.hit_multi_snoops            0                       # Number of snoops hitting in the snoop filter with multiple (>1) holders of the requested data.
system.tol2bus.snoop_filter.hit_single_requests      1075011                       # Number of requests hitting in the snoop filter with a single holder of the requested data.
system.tol2bus.snoop_filter.hit_single_snoops         1161                       # Number of snoops hitting in the snoop filter with a single holder of the requested data.
system.tol2bus.snoop_filter.tot_requests      2150707                       # Total number of requests made to the snoop filter.
system.tol2bus.snoop_filter.tot_snoops           1161                       # Total number of snoops made to the snoop filter.
sim_insts                                   200000005                       # Number of instructions simulated
sim_ops                                     378113569                       # Number of ops (including micro ops) simulated
host_inst_rate                                 186493                       # Simulator instruction rate (inst/s)
host_op_rate                                   352578                       # Simulator op (including micro ops) rate (op/s)
system.clk_domain.clock                          1000                       # Clock period in ticks
system.cpu.branchPred.lookups                55927707                       # Number of BP lookups
system.cpu.branchPred.condPredicted          46426775                       # Number of conditional branches predicted
system.cpu.branchPred.condIncorrect           2259451                       # Number of conditional branches incorrect
system.cpu.branchPred.BTBLookups             20833365                       # Number of BTB lookups
system.cpu.branchPred.BTBHits                19615917                       # Number of BTB hits
system.cpu.branchPred.BTBHitPct             94.156258                       # BTB Hit Percentage
system.cpu.branchPred.RASUsed                 2336452                       # Number of times the RAS was used to get a target.
system.cpu.branchPred.RASIncorrect                  6                       # Number of incorrect RAS predictions.
system.cpu.branchPred.indirectLookups         1405305                       # Number of indirect predictor lookups.
system.cpu.branchPred.indirectHits             997832                       # Number of indirect target hits.
system.cpu.branchPred.indirectMisses           407473                       # Number of indirect misses.
system.cpu.branchPred.indirectMispredicted          620                       # Number of mispredicted indirect branches.
system.cpu.branchPred.power_state.pwrStateResidencyTicks::UNDEFINED  68274856500                       # Cumulative time (in ticks) in various power states
system.cpu.commit.commitSquashedInsts        59535715                       # The number of squashed insts skipped by commit
system.cpu.commit.commitNonSpecStalls             132                       # The number of times commit has been forced to stall to communicate backwards
system.cpu.commit.branchMispredicts           1726499                       # The number of times a branch was mispredicted
system.cpu.commit.numCommittedDist::samples    136243278                       # Number of insts commited each cycle
system.cpu.commit.numCommittedDist::mean     2.775282                       # Number of insts commited each cycle
system.cpu.commit.numCommittedDist::stdev     3.004390                       # Number of insts commited each cycle
system.cpu.commit.numCommittedDist::underflows            0      0.00%      0.00% # Number of insts commited each cycle
system.cpu.commit.numCommittedDist::0        48989868     35.96%     35.96% # Number of insts commited each cycle
system.cpu.commit.numCommittedDist::1        18388044     13.50%     49.45% # Number of insts commited each cycle
system.cpu.commit.numCommittedDist::2         9748665      7.16%     56.61% # Number of insts commited each cycle
system.cpu.commit.numCommittedDist::3        15342232     11.26%     67.87% # Number of insts commited each cycle
system.cpu.commit.numCommittedDist::4         6200357      4.55%     72.42% # Number of insts commited each cycle
system.cpu.commit.numCommittedDist::5         6238379      4.58%     77.00% # Number of insts commited each cycle
system.cpu.commit.numCommittedDist::6         5101631      3.74%     80.74% # Number of insts commited each cycle
system.cpu.commit.numCommittedDist::7         2274426      1.67%     82.41% # Number of insts commited each cycle
system.cpu.commit.numCommittedDist::8        23959676     17.59%    100.00% # Number of insts commited each cycle
system.cpu.commit.numCommittedDist::overflows            0      0.00%    100.00% # Number of insts commited each cycle
system.cpu.commit.numCommittedDist::min_value            0                       # Number of insts commited each cycle
system.cpu.commit.numCommittedDist::max_value            8                       # Number of insts commited each cycle
system.cpu.commit.numCommittedDist::total    136243278                       # Number of insts commited each cycle
system.cpu.commit.instsCommitted::0         100000004                       # Number of instructions committed
system.cpu.commit.instsCommitted::1         100000001                       # Number of instructions committed
system.cpu.commit.instsCommitted::total     200000005                       # Number of instructions committed
system.cpu.commit.opsCommitted::0           189056788                       # Number of ops (including micro ops) committed
system.cpu.commit.opsCommitted::1           189056781                       # Number of ops (including micro ops) committed
system.cpu.commit.opsCommitted::total       378113569                       # Number of ops (including micro ops) committed
system.cpu.commit.memRefs::0                 38145142                       # Number of memory references committed
system.cpu.commit.memRefs::1                 38145142                       # Number of memory references committed
system.cpu.commit.memRefs::total             76290284                       # Number of memory references committed
system.cpu.commit.loads::0                   22524406                       # Number of loads committed
system.cpu.commit.loads::1                   22524406                       # Number of loads committed
system.cpu.commit.loads::total               45048812                       # Number of loads committed
system.cpu.commit.amos::0                           0                       # Number of atomic instructions committed
system.cpu.commit.amos::1                           0                       # Number of atomic instructions committed
system.cpu.commit.amos::total                       0                       # Number of atomic instructions committed
system.cpu.commit.membars::0                       32                       # Number of memory barriers committed
system.cpu.commit.membars::1                       32                       # Number of memory barriers committed
system.cpu.commit.membars::total                   64                       # Number of memory barriers committed
system.cpu.commit.branches::0                21608764                       # Number of branches committed
system.cpu.commit.branches::1                21608763                       # Number of branches committed
system.cpu.commit.branches::total            43217527                       # Number of branches committed
system.cpu.commit.vector::0                         0                       # Number of committed Vector instructions.
system.cpu.commit.vector::1                         0                       # Number of committed Vector instructions.
system.cpu.commit.vector::total                     0                       # Number of committed Vector instructions.
system.cpu.commit.floating::0                 4315334                       # Number of committed floating point instructions.
system.cpu.commit.floating::1                 4315334                       # Number of committed floating point instructions.
system.cpu.commit.floating::total             8630668                       # Number of committed floating point instructions.
system.cpu.commit.integer::0                185704110                       # Number of committed integer instructions.
system.cpu.commit.integer::1                185704103                       # Number of committed integer instructions.
system.cpu.commit.integer::total            371408213                       # Number of committed integer instructions.
system.cpu.commit.functionCalls::0             987396                       # Number of function calls committed.
system.cpu.commit.functionCalls::1             987396                       # Number of function calls committed.
system.cpu.commit.functionCalls::total        1974792                       # Number of function calls committed.
system.cpu.commit.committedInstType_0::No_OpClass      1714802      0.91%      0.91% # Class of committed instruction
system.cpu.commit.committedInstType_0::IntAlu    145602541     77.02%     77.92% # Class of committed instruction
system.cpu.commit.committedInstType_0::IntMult       913989      0.48%     78.41% # Class of committed instruction
system.cpu.commit.committedInstType_0::IntDiv       797005      0.42%     78.83% # Class of committed instruction
system.cpu.commit.committedInstType_0::FloatAdd       431712      0.23%     79.06% # Class of committed instruction
system.cpu.commit.committedInstType_0::FloatCmp            0      0.00%     79.06% # Class of committed instruction
system.cpu.commit.committedInstType_0::FloatCvt           32      0.00%     79.06% # Class of committed instruction
system.cpu.commit.committedInstType_0::FloatMult            0      0.00%     79.06% # Class of committed instruction
system.cpu.commit.committedInstType_0::FloatMultAcc            0      0.00%     79.06% # Class of committed instruction
system.cpu.commit.committedInstType_0::FloatDiv            0      0.00%     79.06% # Class of committed instruction
system.cpu.commit.committedInstType_0::FloatMisc            0      0.00%     79.06% # Class of committed instruction
system.cpu.commit.committedInstType_0::FloatSqrt            0      0.00%     79.06% # Class of committed instruction
system.cpu.commit.committedInstType_0::SimdAdd          400      0.00%     79.06% # Class of committed instruction
system.cpu.commit.committedInstType_0::SimdAddAcc            0      0.00%     79.06% # Class of committed instruction
system.cpu.commit.committedInstType_0::SimdAlu        97180      0.05%     79.11% # Class of committed instruction
system.cpu.commit.committedInstType_0::SimdCmp           20      0.00%     79.11% # Class of committed instruction
system.cpu.commit.committedInstType_0::SimdCvt       255878      0.14%     79.24% # Class of committed instruction
system.cpu.commit.committedInstType_0::SimdMisc      1097969      0.58%     79.82% # Class of committed instruction
system.cpu.commit.committedInstType_0::SimdMult            0      0.00%     79.82% # Class of committed instruction
system.cpu.commit.committedInstType_0::SimdMultAcc            0      0.00%     79.82% # Class of committed instruction
system.cpu.commit.committedInstType_0::SimdShift          112      0.00%     79.82% # Class of committed instruction
system.cpu.commit.committedInstType_0::SimdShiftAcc            0      0.00%     79.82% # Class of committed instruction
system.cpu.commit.committedInstType_0::SimdDiv            0      0.00%     79.82% # Class of committed instruction
system.cpu.commit.committedInstType_0::SimdSqrt            0      0.00%     79.82% # Class of committed instruction
system.cpu.commit.committedInstType_0::SimdFloatAdd            0      0.00%     79.82% # Class of committed instruction
system.cpu.commit.committedInstType_0::SimdFloatAlu            0      0.00%     79.82% # Class of committed instruction
system.cpu.commit.committedInstType_0::SimdFloatCmp            0      0.00%     79.82% # Class of committed instruction
system.cpu.commit.committedInstType_0::SimdFloatCvt            4      0.00%     79.82% # Class of committed instruction
system.cpu.commit.committedInstType_0::SimdFloatDiv            0      0.00%     79.82% # Class of committed instruction
system.cpu.commit.committedInstType_0::SimdFloatMisc            0      0.00%     79.82% # Class of committed instruction
system.cpu.commit.committedInstType_0::SimdFloatMult            2      0.00%     79.82% # Class of committed instruction
system.cpu.commit.committedInstType_0::SimdFloatMultAcc            0      0.00%     79.82% # Class of committed instruction
system.cpu.commit.committedInstType_0::SimdFloatSqrt            0      0.00%     79.82% # Class of committed instruction
system.cpu.commit.committedInstType_0::SimdReduceAdd            0      0.00%     79.82% # Class of committed instruction
system.cpu.commit.committedInstType_0::SimdReduceAlu            0      0.00%     79.82% # Class of committed instruction
system.cpu.commit.committedInstType_0::SimdReduceCmp            0      0.00%     79.82% # Class of committed instruction
system.cpu.commit.committedInstType_0::SimdFloatReduceAdd            0      0.00%     79.82% # Class of committed instruction
system.cpu.commit.committedInstType_0::SimdFloatReduceCmp            0      0.00%     79.82% # Class of committed instruction
system.cpu.commit.committedInstType_0::SimdAes            0      0.00%     79.82% # Class of committed instruction
system.cpu.commit.committedInstType_0::SimdAesMix            0      0.00%     79.82% # Class of committed instruction
system.cpu.commit.committedInstType_0::SimdSha1Hash            0      0.00%     79.82% # Class of committed instruction
system.cpu.commit.committedInstType_0::SimdSha1Hash2            0      0.00%     79.82% # Class of committed instruction
system.cpu.commit.committedInstType_0::SimdSha256Hash            0      0.00%     79.82% # Class of committed instruction
system.cpu.commit.committedInstType_0::SimdSha256Hash2            0      0.00%     79.82% # Class of committed instruction
system.cpu.commit.committedInstType_0::SimdShaSigma2            0      0.00%     79.82% # Class of committed instruction
system.cpu.commit.committedInstType_0::SimdShaSigma3            0      0.00%     79.82% # Class of committed instruction
system.cpu.commit.committedInstType_0::SimdPredAlu            0      0.00%     79.82% # Class of committed instruction
system.cpu.commit.committedInstType_0::MemRead     21806378     11.53%     91.36% # Class of committed instruction
system.cpu.commit.committedInstType_0::MemWrite     14171005      7.50%     98.85% # Class of committed instruction
system.cpu.commit.committedInstType_0::FloatMemRead       718028      0.38%     99.23% # Class of committed instruction
system.cpu.commit.committedInstType_0::FloatMemWrite      1449731      0.77%    100.00% # Class of committed instruction
system.cpu.commit.committedInstType_0::IprAccess            0      0.00%    100.00% # Class of committed instruction
system.cpu.commit.committedInstType_0::InstPrefetch            0      0.00%    100.00% # Class of committed instruction
system.cpu.commit.committedInstType_0::total    189056788                       # Class of committed instruction
system.cpu.commit.committedInstType_1::No_OpClass      1714802      0.91%      0.91% # Class of committed instruction
system.cpu.commit.committedInstType_1::IntAlu    145602534     77.02%     77.92% # Class of committed instruction
system.cpu.commit.committedInstType_1::IntMult       913989      0.48%     78.41% # Class of committed instruction
system.cpu.commit.committedInstType_1::IntDiv       797005      0.42%     78.83% # Class of committed instruction
system.cpu.commit.committedInstType_1::FloatAdd       431712      0.23%     79.06% # Class of committed instruction
system.cpu.commit.committedInstType_1::FloatCmp            0      0.00%     79.06% # Class of committed instruction
system.cpu.commit.committedInstType_1::FloatCvt           32      0.00%     79.06% # Class of committed instruction
system.cpu.commit.committedInstType_1::FloatMult            0      0.00%     79.06% # Class of committed instruction
system.cpu.commit.committedInstType_1::FloatMultAcc            0      0.00%     79.06% # Class of committed instruction
system.cpu.commit.committedInstType_1::FloatDiv            0      0.00%     79.06% # Class of committed instruction
system.cpu.commit.committedInstType_1::FloatMisc            0      0.00%     79.06% # Class of committed instruction
system.cpu.commit.committedInstType_1::FloatSqrt            0      0.00%     79.06% # Class of committed instruction
system.cpu.commit.committedInstType_1::SimdAdd          400      0.00%     79.06% # Class of committed instruction
system.cpu.commit.committedInstType_1::SimdAddAcc            0      0.00%     79.06% # Class of committed instruction
system.cpu.commit.committedInstType_1::SimdAlu        97180      0.05%     79.11% # Class of committed instruction
system.cpu.commit.committedInstType_1::SimdCmp           20      0.00%     79.11% # Class of committed instruction
system.cpu.commit.committedInstType_1::SimdCvt       255878      0.14%     79.24% # Class of committed instruction
system.cpu.commit.committedInstType_1::SimdMisc      1097969      0.58%     79.82% # Class of committed instruction
system.cpu.commit.committedInstType_1::SimdMult            0      0.00%     79.82% # Class of committed instruction
system.cpu.commit.committedInstType_1::SimdMultAcc            0      0.00%     79.82% # Class of committed instruction
system.cpu.commit.committedInstType_1::SimdShift          112      0.00%     79.82% # Class of committed instruction
system.cpu.commit.committedInstType_1::SimdShiftAcc            0      0.00%     79.82% # Class of committed instruction
system.cpu.commit.committedInstType_1::SimdDiv            0      0.00%     79.82% # Class of committed instruction
system.cpu.commit.committedInstType_1::SimdSqrt            0      0.00%     79.82% # Class of committed instruction
system.cpu.commit.committedInstType_1::SimdFloatAdd            0      0.00%     79.82% # Class of committed instruction
system.cpu.commit.committedInstType_1::SimdFloatAlu            0      0.00%     79.82% # Class of committed instruction
system.cpu.commit.committedInstType_1::SimdFloatCmp            0      0.00%     79.82% # Class of committed instruction
system.cpu.commit.committedInstType_1::SimdFloatCvt            4      0.00%     79.82% # Class of committed instruction
system.cpu.commit.committedInstType_1::SimdFloatDiv            0      0.00%     79.82% # Class of committed instruction
system.cpu.commit.committedInstType_1::SimdFloatMisc            0      0.00%     79.82% # Class of committed instruction
system.cpu.commit.committedInstType_1::SimdFloatMult            2      0.00%     79.82% # Class of committed instruction
system.cpu.commit.committedInstType_1::SimdFloatMultAcc            0      0.00%     79.82% # Class of committed instruction
system.cpu.commit.committedInstType_1::SimdFloatSqrt            0      0.00%     79.82% # Class of committed instruction
system.cpu.commit.committedInstType_1::SimdReduceAdd            0      0.00%     79.82% # Class of committed instruction
system.cpu.commit.committedInstType_1::SimdReduceAlu            0      0.00%     79.82% # Class of committed instruction
system.cpu.commit.committedInstType_1::SimdReduceCmp            0      0.00%     79.82% # Class of committed instruction
system.cpu.commit.committedInstType_1::SimdFloatReduceAdd            0      0.00%     79.82% # Class of committed instruction
system.cpu.commit.committedInstType_1::SimdFloatReduceCmp            0      0.00%     79.82% # Class of committed instruction
system.cpu.commit.committedInstType_1::SimdAes            0      0.00%     79.82% # Class of committed instruction
system.cpu.commit.committedInstType_1::SimdAesMix            0      0.00%     79.82% # Class of committed instruction
system.cpu.commit.committedInstType_1::SimdSha1Hash            0      0.00%     79.82% # Class of committed instruction
system.cpu.commit.committedInstType_1::SimdSha1Hash2            0      0.00%     79.82% # Class of committed instruction
system.cpu.commit.committedInstType_1::SimdSha256Hash            0      0.00%     79.82% # Class of committed instruction
system.cpu.commit.committedInstType_1::SimdSha256Hash2            0      0.00%     79.82% # Class of committed instruction
system.cpu.commit.committedInstType_1::SimdShaSigma2            0      0.00%     79.82% # Class of committed instruction
system.cpu.commit.committedInstType_1::SimdShaSigma3            0      0.00%     79.82% # Class of committed instruction
system.cpu.commit.committedInstType_1::SimdPredAlu            0      0.00%     79.82% # Class of committed instruction
system.cpu.commit.committedInstType_1::MemRead     21806378     11.53%     91.36% # Class of committed instruction
system.cpu.commit.committedInstType_1::MemWrite     14171005      7.50%     98.85% # Class of committed instruction
system.cpu.commit.committedInstType_1::FloatMemRead       718028      0.38%     99.23% # Class of committed instruction
system.cpu.commit.committedInstType_1::FloatMemWrite      1449731      0.77%    100.00% # Class of committed instruction
system.cpu.commit.committedInstType_1::IprAccess            0      0.00%    100.00% # Class of committed instruction
system.cpu.commit.committedInstType_1::InstPrefetch            0      0.00%    100.00% # Class of committed instruction
system.cpu.commit.committedInstType_1::total    189056781                       # Class of committed instruction
system.cpu.commit.committedInstType::total    378113569      0.00%      0.00% # Class of committed instruction
system.cpu.commit.commitEligibleSamples      23959676                       # number cycles where commit BW limit reached
system.cpu.dcache.demand_hits::.cpu.data     76475047                       # number of demand (read+write) hits
system.cpu.dcache.demand_hits::total         76475047                       # number of demand (read+write) hits
system.cpu.dcache.overall_hits::.cpu.data     76475047                       # number of overall hits
system.cpu.dcache.overall_hits::total        76475047                       # number of overall hits
system.cpu.dcache.demand_misses::.cpu.data       957362                       # number of demand (read+write) misses
system.cpu.dcache.demand_misses::total         957362                       # number of demand (read+write) misses
system.cpu.dcache.overall_misses::.cpu.data       957362                       # number of overall misses
system.cpu.dcache.overall_misses::total        957362                       # number of overall misses
system.cpu.dcache.demand_miss_latency::.cpu.data  42754935357                       # number of demand (read+write) miss cycles
system.cpu.dcache.demand_miss_latency::total  42754935357                       # number of demand (read+write) miss cycles
system.cpu.dcache.overall_miss_latency::.cpu.data  42754935357                       # number of overall miss cycles
system.cpu.dcache.overall_miss_latency::total  42754935357                       # number of overall miss cycles
system.cpu.dcache.demand_accesses::.cpu.data     77432409                       # number of demand (read+write) accesses
system.cpu.dcache.demand_accesses::total     77432409                       # number of demand (read+write) accesses
system.cpu.dcache.overall_accesses::.cpu.data     77432409                       # number of overall (read+write) accesses
system.cpu.dcache.overall_accesses::total     77432409                       # number of overall (read+write) accesses
system.cpu.dcache.demand_miss_rate::.cpu.data     0.012364                       # miss rate for demand accesses
system.cpu.dcache.demand_miss_rate::total     0.012364                       # miss rate for demand accesses
system.cpu.dcache.overall_miss_rate::.cpu.data     0.012364                       # miss rate for overall accesses
system.cpu.dcache.overall_miss_rate::total     0.012364                       # miss rate for overall accesses
system.cpu.dcache.demand_avg_miss_latency::.cpu.data 44659.110511                       # average overall miss latency
system.cpu.dcache.demand_avg_miss_latency::total 44659.110511                       # average overall miss latency
system.cpu.dcache.overall_avg_miss_latency::.cpu.data 44659.110511                       # average overall miss latency
system.cpu.dcache.overall_avg_miss_latency::total 44659.110511                       # average overall miss latency
system.cpu.dcache.blocked_cycles::no_mshrs            0                       # number of cycles access was blocked
system.cpu.dcache.blocked_cycles::no_targets       231018                       # number of cycles access was blocked
system.cpu.dcache.blocked::no_mshrs                 0                       # number of cycles access was blocked
system.cpu.dcache.blocked::no_targets            7575                       # number of cycles access was blocked
system.cpu.dcache.avg_blocked_cycles::no_mshrs          nan                       # average number of cycles each access was blocked
system.cpu.dcache.avg_blocked_cycles::no_targets    30.497426                       # average number of cycles each access was blocked
system.cpu.dcache.writebacks::.writebacks       770618                       # number of writebacks
system.cpu.dcache.writebacks::total            770618                       # number of writebacks
system.cpu.dcache.demand_mshr_hits::.cpu.data       186571                       # number of demand (read+write) MSHR hits
system.cpu.dcache.demand_mshr_hits::total       186571                       # number of demand (read+write) MSHR hits
system.cpu.dcache.overall_mshr_hits::.cpu.data       186571                       # number of overall MSHR hits
system.cpu.dcache.overall_mshr_hits::total       186571                       # number of overall MSHR hits
system.cpu.dcache.demand_mshr_misses::.cpu.data       770791                       # number of demand (read+write) MSHR misses
system.cpu.dcache.demand_mshr_misses::total       770791                       # number of demand (read+write) MSHR misses
system.cpu.dcache.overall_mshr_misses::.cpu.data       770791                       # number of overall MSHR misses
system.cpu.dcache.overall_mshr_misses::total       770791                       # number of overall MSHR misses
system.cpu.dcache.demand_mshr_miss_latency::.cpu.data  36552033357                       # number of demand (read+write) MSHR miss cycles
system.cpu.dcache.demand_mshr_miss_latency::total  36552033357                       # number of demand (read+write) MSHR miss cycles
system.cpu.dcache.overall_mshr_miss_latency::.cpu.data  36552033357                       # number of overall MSHR miss cycles
system.cpu.dcache.overall_mshr_miss_latency::total  36552033357                       # number of overall MSHR miss cycles
system.cpu.dcache.demand_mshr_miss_rate::.cpu.data     0.009954                       # mshr miss rate for demand accesses
system.cpu.dcache.demand_mshr_miss_rate::total     0.009954                       # mshr miss rate for demand accesses
system.cpu.dcache.overall_mshr_miss_rate::.cpu.data     0.009954                       # mshr miss rate for overall accesses
system.cpu.dcache.overall_mshr_miss_rate::total     0.009954                       # mshr miss rate for overall accesses
system.cpu.dcache.demand_avg_mshr_miss_latency::.cpu.data 47421.458420                       # average overall mshr miss latency
system.cpu.dcache.demand_avg_mshr_miss_latency::total 47421.458420                       # average overall mshr miss latency
system.cpu.dcache.overall_avg_mshr_miss_latency::.cpu.data 47421.458420                       # average overall mshr miss latency
system.cpu.dcache.overall_avg_mshr_miss_latency::total 47421.458420                       # average overall mshr miss latency
system.cpu.dcache.replacements                 102289                       # number of replacements
system.cpu.dcache.expired                      668329                       # dead blocks evicted
system.cpu.dcache.ReadReq_hits::.cpu.data     45742983                       # number of ReadReq hits
system.cpu.dcache.ReadReq_hits::total        45742983                       # number of ReadReq hits
system.cpu.dcache.ReadReq_misses::.cpu.data       427712                       # number of ReadReq misses
system.cpu.dcache.ReadReq_misses::total        427712                       # number of ReadReq misses
system.cpu.dcache.ReadReq_miss_latency::.cpu.data  13441893000                       # number of ReadReq miss cycles
system.cpu.dcache.ReadReq_miss_latency::total  13441893000                       # number of ReadReq miss cycles
system.cpu.dcache.ReadReq_accesses::.cpu.data     46170695                       # number of ReadReq accesses(hits+misses)
system.cpu.dcache.ReadReq_accesses::total     46170695                       # number of ReadReq accesses(hits+misses)
system.cpu.dcache.ReadReq_miss_rate::.cpu.data     0.009264                       # miss rate for ReadReq accesses
system.cpu.dcache.ReadReq_miss_rate::total     0.009264                       # miss rate for ReadReq accesses
system.cpu.dcache.ReadReq_avg_miss_latency::.cpu.data 31427.439492                       # average ReadReq miss latency
system.cpu.dcache.ReadReq_avg_miss_latency::total 31427.439492                       # average ReadReq miss latency
system.cpu.dcache.ReadReq_mshr_hits::.cpu.data       167994                       # number of ReadReq MSHR hits
system.cpu.dcache.ReadReq_mshr_hits::total       167994                       # number of ReadReq MSHR hits
system.cpu.dcache.ReadReq_mshr_misses::.cpu.data       259718                       # number of ReadReq MSHR misses
system.cpu.dcache.ReadReq_mshr_misses::total       259718                       # number of ReadReq MSHR misses
system.cpu.dcache.ReadReq_mshr_miss_latency::.cpu.data   8369195000                       # number of ReadReq MSHR miss cycles
system.cpu.dcache.ReadReq_mshr_miss_latency::total   8369195000                       # number of ReadReq MSHR miss cycles
system.cpu.dcache.ReadReq_mshr_miss_rate::.cpu.data     0.005625                       # mshr miss rate for ReadReq accesses
system.cpu.dcache.ReadReq_mshr_miss_rate::total     0.005625                       # mshr miss rate for ReadReq accesses
system.cpu.dcache.ReadReq_avg_mshr_miss_latency::.cpu.data 32224.162361                       # average ReadReq mshr miss latency
system.cpu.dcache.ReadReq_avg_mshr_miss_latency::total 32224.162361                       # average ReadReq mshr miss latency
system.cpu.dcache.WriteReq_hits::.cpu.data     30732064                       # number of WriteReq hits
system.cpu.dcache.WriteReq_hits::total       30732064                       # number of WriteReq hits
system.cpu.dcache.WriteReq_misses::.cpu.data       529650                       # number of WriteReq misses
system.cpu.dcache.WriteReq_misses::total       529650                       # number of WriteReq misses
system.cpu.dcache.WriteReq_miss_latency::.cpu.data  29313042357                       # number of WriteReq miss cycles
system.cpu.dcache.WriteReq_miss_latency::total  29313042357                       # number of WriteReq miss cycles
system.cpu.dcache.WriteReq_accesses::.cpu.data     31261714                       # number of WriteReq accesses(hits+misses)
system.cpu.dcache.WriteReq_accesses::total     31261714                       # number of WriteReq accesses(hits+misses)
system.cpu.dcache.WriteReq_miss_rate::.cpu.data     0.016942                       # miss rate for WriteReq accesses
system.cpu.dcache.WriteReq_miss_rate::total     0.016942                       # miss rate for WriteReq accesses
system.cpu.dcache.WriteReq_avg_miss_latency::.cpu.data 55344.175129                       # average WriteReq miss latency
system.cpu.dcache.WriteReq_avg_miss_latency::total 55344.175129                       # average WriteReq miss latency
system.cpu.dcache.WriteReq_mshr_hits::.cpu.data        18577                       # number of WriteReq MSHR hits
system.cpu.dcache.WriteReq_mshr_hits::total        18577                       # number of WriteReq MSHR hits
system.cpu.dcache.WriteReq_mshr_misses::.cpu.data       511073                       # number of WriteReq MSHR misses
system.cpu.dcache.WriteReq_mshr_misses::total       511073                       # number of WriteReq MSHR misses
system.cpu.dcache.WriteReq_mshr_miss_latency::.cpu.data  28182838357                       # number of WriteReq MSHR miss cycles
system.cpu.dcache.WriteReq_mshr_miss_latency::total  28182838357                       # number of WriteReq MSHR miss cycles
system.cpu.dcache.WriteReq_mshr_miss_rate::.cpu.data     0.016348                       # mshr miss rate for WriteReq accesses
system.cpu.dcache.WriteReq_mshr_miss_rate::total     0.016348                       # mshr miss rate for WriteReq accesses
system.cpu.dcache.WriteReq_avg_mshr_miss_latency::.cpu.data 55144.447774                       # average WriteReq mshr miss latency
system.cpu.dcache.WriteReq_avg_mshr_miss_latency::total 55144.447774                       # average WriteReq mshr miss latency
system.cpu.dcache.power_state.pwrStateResidencyTicks::UNDEFINED  68274856500                       # Cumulative time (in ticks) in various power states
system.cpu.dcache.tags.tagsinuse           183.158538                       # Cycle average of tags in use
system.cpu.dcache.tags.total_refs            77245838                       # Total number of references to valid blocks.
system.cpu.dcache.tags.sampled_refs            770791                       # Sample count of references to valid blocks.
system.cpu.dcache.tags.avg_refs            100.216321                       # Average number of references to valid blocks.
system.cpu.dcache.tags.warmup_cycle            191500                       # Cycle when the warmup percentage was hit.
system.cpu.dcache.tags.occ_blocks::.cpu.data   183.158538                       # Average occupied blocks per requestor
system.cpu.dcache.tags.occ_percent::.cpu.data     0.357732                       # Average percentage of cache occupancy
system.cpu.dcache.tags.occ_percent::total     0.357732                       # Average percentage of cache occupancy
system.cpu.dcache.tags.occ_task_id_blocks::1024          173                       # Occupied blocks per task id
system.cpu.dcache.tags.age_task_id_blocks_1024::0           28                       # Occupied blocks per task id
system.cpu.dcache.tags.age_task_id_blocks_1024::1           50                       # Occupied blocks per task id
system.cpu.dcache.tags.age_task_id_blocks_1024::2           12                       # Occupied blocks per task id
system.cpu.dcache.tags.age_task_id_blocks_1024::3           14                       # Occupied blocks per task id
system.cpu.dcache.tags.age_task_id_blocks_1024::4           69                       # Occupied blocks per task id
system.cpu.dcache.tags.occ_task_id_percent::1024     0.337891                       # Percentage of cache occupancy per task id
system.cpu.dcache.tags.tag_accesses         620230063                       # Number of tag accesses
system.cpu.dcache.tags.data_accesses        620230063                       # Number of data accesses
system.cpu.dcache.tags.power_state.pwrStateResidencyTicks::UNDEFINED  68274856500                       # Cumulative time (in ticks) in various power states
system.cpu.decode.idleCycles                 42300614                       # Number of cycles decode is idle
system.cpu.decode.blockedCycles              71694537                       # Number of cycles decode is blocked
system.cpu.decode.runCycles                 144897300                       # Number of cycles decode is running
system.cpu.decode.unblockCycles              12334443                       # Number of cycles decode is unblocking
system.cpu.decode.squashCycles                1736212                       # Number of cycles decode is squashing
system.cpu.decode.branchResolved             19068541                       # Number of times decode resolved a  branch
system.cpu.decode.branchMispred                540379                       # Number of times decode detected a branch misprediction
system.cpu.decode.decodedInsts              452941629                       # Number of instructions handled by decode
system.cpu.decode.squashedInsts               9770756                       # Number of squashed instructions handled by decode
system.cpu.dtb.rdAccesses                    51026440                       # TLB accesses on read requests
system.cpu.dtb.wrAccesses                    33513034                       # TLB accesses on write requests
system.cpu.dtb.rdMisses                       1997280                       # TLB misses on read requests
system.cpu.dtb.wrMisses                       1487740                       # TLB misses on write requests
system.cpu.dtb.walker.power_state.pwrStateResidencyTicks::UNDEFINED  68274856500                       # Cumulative time (in ticks) in various power states
system.cpu.dtb_walker_cache.blocked_cycles::no_mshrs            0                       # number of cycles access was blocked
system.cpu.dtb_walker_cache.blocked_cycles::no_targets            0                       # number of cycles access was blocked
system.cpu.dtb_walker_cache.blocked::no_mshrs            0                       # number of cycles access was blocked
system.cpu.dtb_walker_cache.blocked::no_targets            0                       # number of cycles access was blocked
system.cpu.dtb_walker_cache.avg_blocked_cycles::no_mshrs          nan                       # average number of cycles each access was blocked
system.cpu.dtb_walker_cache.avg_blocked_cycles::no_targets          nan                       # average number of cycles each access was blocked
system.cpu.dtb_walker_cache.replacements            0                       # number of replacements
system.cpu.dtb_walker_cache.expired                 0                       # dead blocks evicted
system.cpu.dtb_walker_cache.power_state.pwrStateResidencyTicks::UNDEFINED  68274856500                       # Cumulative time (in ticks) in various power states
system.cpu.dtb_walker_cache.tags.tagsinuse            0                       # Cycle average of tags in use
system.cpu.dtb_walker_cache.tags.total_refs            0                       # Total number of references to valid blocks.
system.cpu.dtb_walker_cache.tags.sampled_refs            0                       # Sample count of references to valid blocks.
system.cpu.dtb_walker_cache.tags.avg_refs          nan                       # Average number of references to valid blocks.
system.cpu.dtb_walker_cache.tags.warmup_cycle            0                       # Cycle when the warmup percentage was hit.
system.cpu.dtb_walker_cache.tags.tag_accesses            0                       # Number of tag accesses
system.cpu.dtb_walker_cache.tags.data_accesses            0                       # Number of data accesses
system.cpu.dtb_walker_cache.tags.power_state.pwrStateResidencyTicks::UNDEFINED  68274856500                       # Cumulative time (in ticks) in various power states
system.cpu.fetch.icacheStallCycles            2245365                       # Number of cycles fetch is stalled on an Icache miss
system.cpu.fetch.insts                      260738249                       # Number of instructions fetch has processed
system.cpu.fetch.branches                    55927707                       # Number of branches that fetch encountered
system.cpu.fetch.predictedBranches           22950201                       # Number of branches that fetch has predicted taken
system.cpu.fetch.cycles                     131707164                       # Number of cycles fetch has run and was not squashing or blocked
system.cpu.fetch.squashCycles                 2269310                       # Number of cycles fetch has spent squashing
system.cpu.fetch.tlbCycles                       1147                       # Number of cycles fetch has spent waiting for tlb
system.cpu.fetch.miscStallCycles                   23                       # Number of cycles fetch has spent waiting on interrupts,or bad addresses, or out of MSHRs
system.cpu.fetch.cacheLines                  89459968                       # Number of cache lines fetched
system.cpu.fetch.icacheSquashes                 56407                       # Number of outstanding Icache misses that were squashed
system.cpu.fetch.tlbSquashes                      630                       # Number of outstanding ITLB misses that were squashed
system.cpu.fetch.SMTDist::samples           136481553                       # Number of Cycles each Thread Fetched
system.cpu.fetch.SMTDist::mean               0.473469                       # Number of Cycles each Thread Fetched
system.cpu.fetch.SMTDist::stdev              0.535107                       # Number of Cycles each Thread Fetched
system.cpu.fetch.SMTDist::underflows                0      0.00%      0.00% # Number of Cycles each Thread Fetched
system.cpu.fetch.SMTDist::-1                  2527854      1.85%      1.85% # Number of Cycles each Thread Fetched
system.cpu.fetch.SMTDist::0                  66806003     48.95%     50.80% # Number of Cycles each Thread Fetched
system.cpu.fetch.SMTDist::1                  67147696     49.20%    100.00% # Number of Cycles each Thread Fetched
system.cpu.fetch.SMTDist::2                         0      0.00%    100.00% # Number of Cycles each Thread Fetched
system.cpu.fetch.SMTDist::overflows                 0      0.00%    100.00% # Number of Cycles each Thread Fetched
system.cpu.fetch.SMTDist::min_value                -1                       # Number of Cycles each Thread Fetched
system.cpu.fetch.SMTDist::max_value                 1                       # Number of Cycles each Thread Fetched
system.cpu.fetch.SMTDist::total             136481553                       # Number of Cycles each Thread Fetched
system.cpu.fetch.nisnDist::samples          136481553                       # Number of instructions fetched each cycle (Total)
system.cpu.fetch.nisnDist::mean              3.595845                       # Number of instructions fetched each cycle (Total)
system.cpu.fetch.nisnDist::stdev             2.870783                       # Number of instructions fetched each cycle (Total)
system.cpu.fetch.nisnDist::underflows               0      0.00%      0.00% # Number of instructions fetched each cycle (Total)
system.cpu.fetch.nisnDist::0                 36278609     26.58%     26.58% # Number of instructions fetched each cycle (Total)
system.cpu.fetch.nisnDist::1                  7925876      5.81%     32.39% # Number of instructions fetched each cycle (Total)
system.cpu.fetch.nisnDist::2                  8292944      6.08%     38.46% # Number of instructions fetched each cycle (Total)
system.cpu.fetch.nisnDist::3                 14557076     10.67%     49.13% # Number of instructions fetched each cycle (Total)
system.cpu.fetch.nisnDist::4                 11698447      8.57%     57.70% # Number of instructions fetched each cycle (Total)
system.cpu.fetch.nisnDist::5                 16361164     11.99%     69.69% # Number of instructions fetched each cycle (Total)
system.cpu.fetch.nisnDist::6                 14010465     10.27%     79.96% # Number of instructions fetched each cycle (Total)
system.cpu.fetch.nisnDist::7                  8934619      6.55%     86.50% # Number of instructions fetched each cycle (Total)
system.cpu.fetch.nisnDist::8                 18422353     13.50%    100.00% # Number of instructions fetched each cycle (Total)
system.cpu.fetch.nisnDist::overflows                0      0.00%    100.00% # Number of instructions fetched each cycle (Total)
system.cpu.fetch.nisnDist::min_value                0                       # Number of instructions fetched each cycle (Total)
system.cpu.fetch.nisnDist::max_value                8                       # Number of instructions fetched each cycle (Total)
system.cpu.fetch.nisnDist::total            136481553                       # Number of instructions fetched each cycle (Total)
system.cpu.fetch.branchRate                  0.409578                       # Number of branch fetches per cycle
system.cpu.fetch.rate                        1.909475                       # Number of inst fetches per cycle
system.cpu.icache.demand_hits::.cpu.inst     89153459                       # number of demand (read+write) hits
system.cpu.icache.demand_hits::total         89153459                       # number of demand (read+write) hits
system.cpu.icache.overall_hits::.cpu.inst     89153459                       # number of overall hits
system.cpu.icache.overall_hits::total        89153459                       # number of overall hits
system.cpu.icache.demand_misses::.cpu.inst       306507                       # number of demand (read+write) misses
system.cpu.icache.demand_misses::total         306507                       # number of demand (read+write) misses
system.cpu.icache.overall_misses::.cpu.inst       306507                       # number of overall misses
system.cpu.icache.overall_misses::total        306507                       # number of overall misses
system.cpu.icache.demand_miss_latency::.cpu.inst   2680053999                       # number of demand (read+write) miss cycles
system.cpu.icache.demand_miss_latency::total   2680053999                       # number of demand (read+write) miss cycles
[...]
system.mem_ctrls1.dram.perBankWrBursts::4         5304                       # Per bank write bursts
system.mem_ctrls1.dram.perBankWrBursts::5         5385                       # Per bank write bursts
system.mem_ctrls1.dram.perBankWrBursts::6         5462                       # Per bank write bursts
system.mem_ctrls1.dram.perBankWrBursts::7         5363                       # Per bank write bursts
system.mem_ctrls1.dram.perBankWrBursts::8         5503                       # Per bank write bursts
system.mem_ctrls1.dram.perBankWrBursts::9         5234                       # Per bank write bursts
system.mem_ctrls1.dram.perBankWrBursts::10         5292                       # Per bank write bursts
system.mem_ctrls1.dram.perBankWrBursts::11         5283                       # Per bank write bursts
system.mem_ctrls1.dram.perBankWrBursts::12         5304                       # Per bank write bursts
system.mem_ctrls1.dram.perBankWrBursts::13         5407                       # Per bank write bursts
system.mem_ctrls1.dram.perBankWrBursts::14         5256                       # Per bank write bursts
system.mem_ctrls1.dram.perBankWrBursts::15         5299                       # Per bank write bursts
system.mem_ctrls1.dram.perBankWrBursts::16         5319                       # Per bank write bursts
system.mem_ctrls1.dram.perBankWrBursts::17         5381                       # Per bank write bursts
system.mem_ctrls1.dram.perBankWrBursts::18         5346                       # Per bank write bursts
system.mem_ctrls1.dram.perBankWrBursts::19         5257                       # Per bank write bursts
system.mem_ctrls1.dram.perBankWrBursts::20         5290                       # Per bank write bursts
system.mem_ctrls1.dram.perBankWrBursts::21         5331                       # Per bank write bursts
system.mem_ctrls1.dram.perBankWrBursts::22         5349                       # Per bank write bursts
system.mem_ctrls1.dram.perBankWrBursts::23         5435                       # Per bank write bursts
system.mem_ctrls1.dram.perBankWrBursts::24         5381                       # Per bank write bursts
system.mem_ctrls1.dram.perBankWrBursts::25         5221                       # Per bank write bursts
system.mem_ctrls1.dram.perBankWrBursts::26         5397                       # Per bank write bursts
system.mem_ctrls1.dram.perBankWrBursts::27         5366                       # Per bank write bursts
system.mem_ctrls1.dram.perBankWrBursts::28         5393                       # Per bank write bursts
system.mem_ctrls1.dram.perBankWrBursts::29         5453                       # Per bank write bursts
system.mem_ctrls1.dram.perBankWrBursts::30         5339                       # Per bank write bursts
system.mem_ctrls1.dram.perBankWrBursts::31         5326                       # Per bank write bursts
system.mem_ctrls1.dram.totQLat             3871871351                       # Total ticks spent queuing
system.mem_ctrls1.dram.totBusLat            693755720                       # Total ticks spent in databus transfers
system.mem_ctrls1.dram.totMemAccLat        7513880671                       # Total ticks spent from burst creation until serviced by the DRAM
system.mem_ctrls1.dram.avgQLat               18595.99                       # Average queueing delay per DRAM burst
system.mem_ctrls1.dram.avgBusLat              3332.00                       # Average bus latency per DRAM burst
system.mem_ctrls1.dram.avgMemAccLat          36087.99                       # Average memory access latency per DRAM burst
system.mem_ctrls1.dram.readRowHits             124887                       # Number of row buffer hits during reads
system.mem_ctrls1.dram.writeRowHits             46213                       # Number of row buffer hits during writes
system.mem_ctrls1.dram.readRowHitRate           59.98                       # Row buffer hit rate for reads
system.mem_ctrls1.dram.writeRowHitRate          26.98                       # Row buffer hit rate for writes
system.mem_ctrls1.dram.bytesPerActivate::samples       208370                       # Bytes accessed per row activation
system.mem_ctrls1.dram.bytesPerActivate::mean   116.552671                       # Bytes accessed per row activation
system.mem_ctrls1.dram.bytesPerActivate::gmean    98.505527                       # Bytes accessed per row activation
system.mem_ctrls1.dram.bytesPerActivate::stdev    91.203063                       # Bytes accessed per row activation
system.mem_ctrls1.dram.bytesPerActivate::0-127       107586     51.63%     51.63% # Bytes accessed per row activation
system.mem_ctrls1.dram.bytesPerActivate::128-255        82933     39.80%     91.43% # Bytes accessed per row activation
system.mem_ctrls1.dram.bytesPerActivate::256-383        10913      5.24%     96.67% # Bytes accessed per row activation
system.mem_ctrls1.dram.bytesPerActivate::384-511         3725      1.79%     98.46% # Bytes accessed per row activation
system.mem_ctrls1.dram.bytesPerActivate::512-639         1904      0.91%     99.37% # Bytes accessed per row activation
system.mem_ctrls1.dram.bytesPerActivate::640-767          810      0.39%     99.76% # Bytes accessed per row activation
system.mem_ctrls1.dram.bytesPerActivate::768-895          192      0.09%     99.85% # Bytes accessed per row activation
system.mem_ctrls1.dram.bytesPerActivate::896-1023           58      0.03%     99.88% # Bytes accessed per row activation
system.mem_ctrls1.dram.bytesPerActivate::1024-1151          249      0.12%    100.00% # Bytes accessed per row activation
system.mem_ctrls1.dram.bytesPerActivate::total       208370                       # Bytes accessed per row activation
system.mem_ctrls1.dram.bytesRead             13325440                       # Total number of bytes read from DRAM
system.mem_ctrls1.dram.bytesWritten          10960640                       # Total number of bytes written to DRAM
system.mem_ctrls1.dram.avgRdBW             195.173460                       # Average DRAM read bandwidth in MiBytes/s
system.mem_ctrls1.dram.avgWrBW             160.536991                       # Average DRAM write bandwidth in MiBytes/s
system.mem_ctrls1.dram.peakBW                19207.00                       # Theoretical peak bandwidth in MiByte/s
system.mem_ctrls1.dram.busUtil                   1.85                       # Data bus utilization in percentage
system.mem_ctrls1.dram.busUtilRead               1.02                       # Data bus utilization in percentage for reads
system.mem_ctrls1.dram.busUtilWrite              0.84                       # Data bus utilization in percentage for writes
system.mem_ctrls1.dram.pageHitRate              45.09                       # Row buffer hit rate, read and write combined
system.mem_ctrls1.dram.power_state.pwrStateResidencyTicks::UNDEFINED  68274856500                       # Cumulative time (in ticks) in various power states
system.mem_ctrls1.dram.rank0.actEnergy   325494789.983993                       # Energy for activate commands per rank (pJ)
system.mem_ctrls1.dram.rank0.preEnergy   432741150.273592                       # Energy for precharge commands per rank (pJ)
system.mem_ctrls1.dram.rank0.readEnergy  438718842.239966                       # Energy for read commands per rank (pJ)
system.mem_ctrls1.dram.rank0.writeEnergy 322012903.295998                       # Energy for write commands per rank (pJ)
system.mem_ctrls1.dram.rank0.refreshEnergy 12148376412.915184                       # Energy for refresh commands per rank (pJ)
system.mem_ctrls1.dram.rank0.actBackEnergy 48653594394.551781                       # Energy for active background per rank (pJ)
system.mem_ctrls1.dram.rank0.preBackEnergy 7186273652.275129                       # Energy for precharge background per rank (pJ)
system.mem_ctrls1.dram.rank0.actPowerDownEnergy            0                       # Energy for active power-down per rank (pJ)
system.mem_ctrls1.dram.rank0.prePowerDownEnergy            0                       # Energy for precharge power-down per rank (pJ)
system.mem_ctrls1.dram.rank0.selfRefreshEnergy            0                       # Energy for self refresh per rank (pJ)
system.mem_ctrls1.dram.rank0.totalEnergy 69507212145.537674                       # Total energy per rank (pJ)
system.mem_ctrls1.dram.rank0.averagePower  1018.049919                       # Core power per rank (mW)
system.mem_ctrls1.dram.rank0.totalIdleTime            0                       # Total Idle time Per DRAM Rank
system.mem_ctrls1.dram.rank0.pwrStateTime::IDLE  10763443626                       # Time in different power states
system.mem_ctrls1.dram.rank0.pwrStateTime::REF   3069150000                       # Time in different power states
system.mem_ctrls1.dram.rank0.pwrStateTime::SREF            0                       # Time in different power states
system.mem_ctrls1.dram.rank0.pwrStateTime::PRE_PDN            0                       # Time in different power states
system.mem_ctrls1.dram.rank0.pwrStateTime::ACT  54442262874                       # Time in different power states
system.mem_ctrls1.dram.rank0.pwrStateTime::ACT_PDN            0                       # Time in different power states
system.mem_ctrls1.dram.rank1.actEnergy   324359564.255992                       # Energy for activate commands per rank (pJ)
system.mem_ctrls1.dram.rank1.preEnergy   431231882.222392                       # Energy for precharge commands per rank (pJ)
system.mem_ctrls1.dram.rank1.readEnergy  437078378.687964                       # Energy for read commands per rank (pJ)
system.mem_ctrls1.dram.rank1.writeEnergy 321667121.663999                       # Energy for write commands per rank (pJ)
system.mem_ctrls1.dram.rank1.refreshEnergy 12148376412.915184                       # Energy for refresh commands per rank (pJ)
system.mem_ctrls1.dram.rank1.actBackEnergy 48780220499.841331                       # Energy for active background per rank (pJ)
system.mem_ctrls1.dram.rank1.preBackEnergy 7088979017.702374                       # Energy for precharge background per rank (pJ)
system.mem_ctrls1.dram.rank1.actPowerDownEnergy            0                       # Energy for active power-down per rank (pJ)
system.mem_ctrls1.dram.rank1.prePowerDownEnergy            0                       # Energy for precharge power-down per rank (pJ)
system.mem_ctrls1.dram.rank1.selfRefreshEnergy            0                       # Energy for self refresh per rank (pJ)
system.mem_ctrls1.dram.rank1.totalEnergy 69531912877.291046                       # Total energy per rank (pJ)
system.mem_ctrls1.dram.rank1.averagePower  1018.411703                       # Core power per rank (mW)
system.mem_ctrls1.dram.rank1.totalIdleTime            0                       # Total Idle time Per DRAM Rank
system.mem_ctrls1.dram.rank1.pwrStateTime::IDLE  10613488618                       # Time in different power states
system.mem_ctrls1.dram.rank1.pwrStateTime::REF   3069150000                       # Time in different power states
system.mem_ctrls1.dram.rank1.pwrStateTime::SREF            0                       # Time in different power states
system.mem_ctrls1.dram.rank1.pwrStateTime::PRE_PDN            0                       # Time in different power states
system.mem_ctrls1.dram.rank1.pwrStateTime::ACT  54592217882                       # Time in different power states
system.mem_ctrls1.dram.rank1.pwrStateTime::ACT_PDN            0                       # Time in different power states
system.mem_ctrls1.power_state.pwrStateResidencyTicks::UNDEFINED  68274856500                       # Cumulative time (in ticks) in various power states
system.membus.trans_dist::ReadResp              89519                       # Transaction distribution
system.membus.trans_dist::WritebackDirty       342612                       # Transaction distribution
system.membus.trans_dist::CleanEvict             7989                       # Transaction distribution
system.membus.trans_dist::ReadExReq            327135                       # Transaction distribution
system.membus.trans_dist::ReadExResp           327135                       # Transaction distribution
system.membus.trans_dist::ReadSharedReq         89519                       # Transaction distribution
system.membus.pkt_count_system.l2.mem_side_port::system.mem_ctrls0.port       592014                       # Packet count per connected requestor and responder (bytes)
system.membus.pkt_count_system.l2.mem_side_port::system.mem_ctrls1.port       591895                       # Packet count per connected requestor and responder (bytes)
system.membus.pkt_count_system.l2.mem_side_port::total      1183909                       # Packet count per connected requestor and responder (bytes)
system.membus.pkt_count::total                1183909                       # Packet count per connected requestor and responder (bytes)
system.membus.pkt_size_system.l2.mem_side_port::system.mem_ctrls0.port     24297280                       # Cumulative packet size per connected requestor and responder (bytes)
system.membus.pkt_size_system.l2.mem_side_port::system.mem_ctrls1.port     24295744                       # Cumulative packet size per connected requestor and responder (bytes)
system.membus.pkt_size_system.l2.mem_side_port::total     48593024                       # Cumulative packet size per connected requestor and responder (bytes)
system.membus.pkt_size::total                48593024                       # Cumulative packet size per connected requestor and responder (bytes)
system.membus.snoops                                0                       # Total snoops (count)
system.membus.snoopTraffic                          0                       # Total snoop traffic (bytes)
system.membus.snoop_fanout::samples            416654                       # Request fanout histogram
system.membus.snoop_fanout::mean                    0                       # Request fanout histogram
system.membus.snoop_fanout::stdev                   0                       # Request fanout histogram
system.membus.snoop_fanout::underflows              0      0.00%      0.00% # Request fanout histogram
system.membus.snoop_fanout::0                  416654    100.00%    100.00% # Request fanout histogram
system.membus.snoop_fanout::1                       0      0.00%    100.00% # Request fanout histogram
system.membus.snoop_fanout::overflows               0      0.00%    100.00% # Request fanout histogram
system.membus.snoop_fanout::min_value               0                       # Request fanout histogram
system.membus.snoop_fanout::max_value               0                       # Request fanout histogram
system.membus.snoop_fanout::total              416654                       # Request fanout histogram
system.membus.power_state.pwrStateResidencyTicks::UNDEFINED  68274856500                       # Cumulative time (in ticks) in various power states
system.membus.reqLayer4.occupancy          1119092204                       # Layer occupancy (ticks)
system.membus.reqLayer4.utilization               1.6                       # Layer utilization (%)
system.membus.reqLayer5.occupancy          1118860726                       # Layer occupancy (ticks)
system.membus.reqLayer5.utilization               1.6                       # Layer utilization (%)
system.membus.respLayer1.occupancy         2200997771                       # Layer occupancy (ticks)
system.membus.respLayer1.utilization              3.2                       # Layer utilization (%)
system.tol2bus.trans_dist::ReadResp            564305                       # Transaction distribution
system.tol2bus.trans_dist::WritebackDirty      1028135                       # Transaction distribution
system.tol2bus.trans_dist::WritebackClean       389488                       # Transaction distribution
system.tol2bus.trans_dist::CleanEvict            9150                       # Transaction distribution
system.tol2bus.trans_dist::HardPFReq               45                       # Transaction distribution
system.tol2bus.trans_dist::ReadExReq           511391                       # Transaction distribution
system.tol2bus.trans_dist::ReadExResp          511391                       # Transaction distribution
system.tol2bus.trans_dist::ReadCleanReq        304905                       # Transaction distribution
system.tol2bus.trans_dist::ReadSharedReq       259400                       # Transaction distribution
system.tol2bus.pkt_count_system.cpu.icache.mem_side_port::system.l2.cpu_side_port       914203                       # Packet count per connected requestor and responder (bytes)
system.tol2bus.pkt_count_system.cpu.dcache.mem_side_port::system.l2.cpu_side_port      2312200                       # Packet count per connected requestor and responder (bytes)
system.tol2bus.pkt_count::total               3226403                       # Packet count per connected requestor and responder (bytes)
system.tol2bus.pkt_size_system.cpu.icache.mem_side_port::system.l2.cpu_side_port     38995072                       # Cumulative packet size per connected requestor and responder (bytes)
system.tol2bus.pkt_size_system.cpu.dcache.mem_side_port::system.l2.cpu_side_port     98650176                       # Cumulative packet size per connected requestor and responder (bytes)
system.tol2bus.pkt_size::total              137645248                       # Cumulative packet size per connected requestor and responder (bytes)
system.tol2bus.snoops                          351807                       # Total snoops (count)
system.tol2bus.snoopTraffic                  21927168                       # Total snoop traffic (bytes)
system.tol2bus.snoop_fanout::samples          1427503                       # Request fanout histogram
system.tol2bus.snoop_fanout::mean            0.000826                       # Request fanout histogram
system.tol2bus.snoop_fanout::stdev           0.028727                       # Request fanout histogram
system.tol2bus.snoop_fanout::underflows             0      0.00%      0.00% # Request fanout histogram
system.tol2bus.snoop_fanout::0                1426324     99.92%     99.92% # Request fanout histogram
system.tol2bus.snoop_fanout::1                   1179      0.08%    100.00% # Request fanout histogram
system.tol2bus.snoop_fanout::2                      0      0.00%    100.00% # Request fanout histogram
system.tol2bus.snoop_fanout::3                      0      0.00%    100.00% # Request fanout histogram
system.tol2bus.snoop_fanout::4                      0      0.00%    100.00% # Request fanout histogram
system.tol2bus.snoop_fanout::overflows              0      0.00%    100.00% # Request fanout histogram
system.tol2bus.snoop_fanout::min_value              0                       # Request fanout histogram
system.tol2bus.snoop_fanout::max_value              1                       # Request fanout histogram
system.tol2bus.snoop_fanout::total            1427503                       # Request fanout histogram
system.tol2bus.power_state.pwrStateResidencyTicks::UNDEFINED  68274856500                       # Cumulative time (in ticks) in various power states
system.tol2bus.reqLayer0.occupancy         2150364500                       # Layer occupancy (ticks)
system.tol2bus.reqLayer0.utilization              3.1                       # Layer utilization (%)
system.tol2bus.respLayer0.occupancy         457384945                       # Layer occupancy (ticks)
system.tol2bus.respLayer0.utilization             0.7                       # Layer utilization (%)
system.tol2bus.respLayer1.occupancy        1156296280                       # Layer occupancy (ticks)
system.tol2bus.respLayer1.utilization             1.7                       # Layer utilization (%)
system.voltage_domain.voltage                       1                       # Voltage in Volts

---------- End Simulation Statistics   ----------
