
---------- Begin Simulation Statistics ----------
final_tick                               1190212693500                       # Number of ticks from beginning of simulation (restored from checkpoints and never reset)
host_mem_usage                               68067592                       # Number of bytes of host memory used
host_seconds                                  3325.86                       # Real time elapsed on the host
host_tick_rate                              357866493                       # Simulator tick rate (ticks/s)
sim_freq                                 1000000000000                       # Frequency of simulated ticks
sim_seconds                                  1.190213                       # Number of seconds simulated
sim_ticks                                1190212693500                       # Number of ticks simulated
system.cpu.cc_regfile_reads                 151036817                       # number of cc regfile reads
system.cpu.cc_regfile_writes                120070681                       # number of cc regfile writes
system.cpu.committedInsts::0                 99999874                       # Number of Instructions Simulated
system.cpu.committedInsts::1                100000000                       # Number of Instructions Simulated
system.cpu.committedInsts::total            199999874                       # Number of Instructions Simulated
system.cpu.committedOps::0                  199834957                       # Number of Ops (including micro ops) Simulated
system.cpu.committedOps::1                  199835209                       # Number of Ops (including micro ops) Simulated
system.cpu.committedOps::total              399670166                       # Number of Ops (including micro ops) Simulated
system.cpu.cpi::0                           23.804284                       # CPI: Cycles Per Instruction
system.cpu.cpi::1                           23.804254                       # CPI: Cycles Per Instruction
system.cpu.cpi_total                        11.902134                       # CPI: Total CPI of All Threads
system.cpu.fp_regfile_reads                 258427852                       # number of floating regfile reads
system.cpu.fp_regfile_writes                    13774                       # number of floating regfile writes
system.cpu.idleCycles                           57400                       # Total number of cycles that the CPU has spent unscheduled due to idling
system.cpu.iew.branchMispredicts                16931                       # Number of branch mispredicts detected at execute
system.cpu.iew.exec_branches::0              15101814                       # Number of branches executed
system.cpu.iew.exec_branches::1              15101378                       # Number of branches executed
system.cpu.iew.exec_branches::total          30203192                       # Number of branches executed
system.cpu.iew.exec_nop::0                          0                       # number of nop insts executed
system.cpu.iew.exec_nop::1                          0                       # number of nop insts executed
system.cpu.iew.exec_nop::total                      0                       # number of nop insts executed
system.cpu.iew.exec_rate                     0.174889                       # Inst execution rate
system.cpu.iew.exec_refs::0                 117435975                       # number of memory reference insts executed
system.cpu.iew.exec_refs::1                 117417154                       # number of memory reference insts executed
system.cpu.iew.exec_refs::total             234853129                       # number of memory reference insts executed
system.cpu.iew.exec_stores::0               117347323                       # Number of stores executed
system.cpu.iew.exec_stores::1               117328826                       # Number of stores executed
system.cpu.iew.exec_stores::total           234676149                       # Number of stores executed
system.cpu.iew.exec_swp::0                          0                       # number of swp insts executed
system.cpu.iew.exec_swp::1                          0                       # number of swp insts executed
system.cpu.iew.exec_swp::total                      0                       # number of swp insts executed
system.cpu.iew.iewBlockCycles                 2348479                       # Number of cycles IEW is blocking
system.cpu.iew.iewDispLoadInsts                190061                       # Number of dispatched load instructions
system.cpu.iew.iewDispNonSpecInsts                 66                       # Number of dispatched non-speculative instructions
system.cpu.iew.iewDispSquashedInsts                 0                       # Number of squashed instructions skipped by dispatch
system.cpu.iew.iewDispStoreInsts            238273734                       # Number of dispatched store instructions
system.cpu.iew.iewDispatchedInsts           420130376                       # Number of instructions dispatched to IQ
system.cpu.iew.iewExecLoadInsts::0              88652                       # Number of load instructions executed
system.cpu.iew.iewExecLoadInsts::1              88328                       # Number of load instructions executed
system.cpu.iew.iewExecLoadInsts::total         176980                       # Number of load instructions executed
system.cpu.iew.iewExecSquashedInsts             21870                       # Number of squashed instructions skipped in execute
system.cpu.iew.iewExecutedInsts             416309586                       # Number of executed instructions
system.cpu.iew.iewIQFullEvents                    580                       # Number of times the IQ has become full, causing a stall
system.cpu.iew.iewIdleCycles                        0                       # Number of cycles IEW is idle
system.cpu.iew.iewLSQFullEvents              57082711                       # Number of times the LSQ has become full, causing a stall
system.cpu.iew.iewSquashCycles                 457326                       # Number of cycles IEW is squashing
system.cpu.iew.iewUnblockCycles              57083264                       # Number of cycles IEW is unblocking
system.cpu.iew.memOrderViolationEvents            188                       # Number of memory order violations
system.cpu.iew.predictedNotTakenIncorrect        11579                       # Number of branches that were predicted not taken incorrectly
system.cpu.iew.predictedTakenIncorrect           5352                       # Number of branches that were predicted taken incorrectly
system.cpu.iew.wb_consumers::0              106880241                       # num instructions consuming a value
system.cpu.iew.wb_consumers::1              106365089                       # num instructions consuming a value
system.cpu.iew.wb_consumers::total          213245330                       # num instructions consuming a value
system.cpu.iew.wb_count::0                  203939066                       # cumulative count of insts written-back
system.cpu.iew.wb_count::1                  203935277                       # cumulative count of insts written-back
system.cpu.iew.wb_count::total              407874343                       # cumulative count of insts written-back
system.cpu.iew.wb_fanout::0                  0.647338                       # average fanout of values written-back
system.cpu.iew.wb_fanout::1                  0.651787                       # average fanout of values written-back
system.cpu.iew.wb_fanout::total              0.649557                       # average fanout of values written-back
system.cpu.iew.wb_producers::0               69187640                       # num instructions producing a value
system.cpu.iew.wb_producers::1               69327381                       # num instructions producing a value
system.cpu.iew.wb_producers::total          138515021                       # num instructions producing a value
system.cpu.iew.wb_rate::0                    0.085673                       # insts written-back per cycle
system.cpu.iew.wb_rate::1                    0.085672                       # insts written-back per cycle
system.cpu.iew.wb_rate::total                0.171345                       # insts written-back per cycle
system.cpu.iew.wb_sent::0                   208157465                       # cumulative count of insts sent to commit
system.cpu.iew.wb_sent::1                   208135204                       # cumulative count of insts sent to commit
system.cpu.iew.wb_sent::total               416292669                       # cumulative count of insts sent to commit
system.cpu.int_regfile_reads                699843135                       # number of integer regfile reads
system.cpu.int_regfile_writes               151398572                       # number of integer regfile writes
system.cpu.ipc::0                            0.042009                       # IPC: Instructions Per Cycle
system.cpu.ipc::1                            0.042009                       # IPC: Instructions Per Cycle
system.cpu.ipc_total                         0.084019                       # IPC: Total IPC of All Threads
system.cpu.iq.FU_type_0::No_OpClass              6125      0.00%      0.00% # Type of FU issued
system.cpu.iq.FU_type_0::IntAlu              90723375     41.20%     41.21% # Type of FU issued
system.cpu.iq.FU_type_0::IntMult                 1114      0.00%     41.21% # Type of FU issued
system.cpu.iq.FU_type_0::IntDiv                  1677      0.00%     41.21% # Type of FU issued
system.cpu.iq.FU_type_0::FloatAdd                 719      0.00%     41.21% # Type of FU issued
system.cpu.iq.FU_type_0::FloatCmp                   0      0.00%     41.21% # Type of FU issued
system.cpu.iq.FU_type_0::FloatCvt                  32      0.00%     41.21% # Type of FU issued
system.cpu.iq.FU_type_0::FloatMult                  0      0.00%     41.21% # Type of FU issued
system.cpu.iq.FU_type_0::FloatMultAcc               0      0.00%     41.21% # Type of FU issued
system.cpu.iq.FU_type_0::FloatDiv                   0      0.00%     41.21% # Type of FU issued
system.cpu.iq.FU_type_0::FloatMisc                  0      0.00%     41.21% # Type of FU issued
system.cpu.iq.FU_type_0::FloatSqrt                  0      0.00%     41.21% # Type of FU issued
system.cpu.iq.FU_type_0::SimdAdd                  509      0.00%     41.21% # Type of FU issued
system.cpu.iq.FU_type_0::SimdAddAcc                 0      0.00%     41.21% # Type of FU issued
system.cpu.iq.FU_type_0::SimdAlu                 1633      0.00%     41.21% # Type of FU issued
system.cpu.iq.FU_type_0::SimdCmp                   20      0.00%     41.21% # Type of FU issued
system.cpu.iq.FU_type_0::SimdCvt                 1276      0.00%     41.21% # Type of FU issued
system.cpu.iq.FU_type_0::SimdMisc                1173      0.00%     41.21% # Type of FU issued
system.cpu.iq.FU_type_0::SimdMult                   0      0.00%     41.21% # Type of FU issued
system.cpu.iq.FU_type_0::SimdMultAcc                0      0.00%     41.21% # Type of FU issued
system.cpu.iq.FU_type_0::SimdShift                112      0.00%     41.21% # Type of FU issued
system.cpu.iq.FU_type_0::SimdShiftAcc               0      0.00%     41.21% # Type of FU issued
system.cpu.iq.FU_type_0::SimdDiv                    0      0.00%     41.21% # Type of FU issued
system.cpu.iq.FU_type_0::SimdSqrt                   0      0.00%     41.21% # Type of FU issued
system.cpu.iq.FU_type_0::SimdFloatAdd               0      0.00%     41.21% # Type of FU issued
system.cpu.iq.FU_type_0::SimdFloatAlu               0      0.00%     41.21% # Type of FU issued
system.cpu.iq.FU_type_0::SimdFloatCmp               0      0.00%     41.21% # Type of FU issued
system.cpu.iq.FU_type_0::SimdFloatCvt               0      0.00%     41.21% # Type of FU issued
system.cpu.iq.FU_type_0::SimdFloatDiv               0      0.00%     41.21% # Type of FU issued
system.cpu.iq.FU_type_0::SimdFloatMisc              0      0.00%     41.21% # Type of FU issued
system.cpu.iq.FU_type_0::SimdFloatMult              0      0.00%     41.21% # Type of FU issued
system.cpu.iq.FU_type_0::SimdFloatMultAcc            0      0.00%     41.21% # Type of FU issued
system.cpu.iq.FU_type_0::SimdFloatSqrt              0      0.00%     41.21% # Type of FU issued
system.cpu.iq.FU_type_0::SimdReduceAdd              0      0.00%     41.21% # Type of FU issued
system.cpu.iq.FU_type_0::SimdReduceAlu              0      0.00%     41.21% # Type of FU issued
system.cpu.iq.FU_type_0::SimdReduceCmp              0      0.00%     41.21% # Type of FU issued
system.cpu.iq.FU_type_0::SimdFloatReduceAdd            0      0.00%     41.21% # Type of FU issued
system.cpu.iq.FU_type_0::SimdFloatReduceCmp            0      0.00%     41.21% # Type of FU issued
system.cpu.iq.FU_type_0::SimdAes                    0      0.00%     41.21% # Type of FU issued
system.cpu.iq.FU_type_0::SimdAesMix                 0      0.00%     41.21% # Type of FU issued
system.cpu.iq.FU_type_0::SimdSha1Hash               0      0.00%     41.21% # Type of FU issued
system.cpu.iq.FU_type_0::SimdSha1Hash2              0      0.00%     41.21% # Type of FU issued
system.cpu.iq.FU_type_0::SimdSha256Hash             0      0.00%     41.21% # Type of FU issued
system.cpu.iq.FU_type_0::SimdSha256Hash2            0      0.00%     41.21% # Type of FU issued
system.cpu.iq.FU_type_0::SimdShaSigma2              0      0.00%     41.21% # Type of FU issued
system.cpu.iq.FU_type_0::SimdShaSigma3              0      0.00%     41.21% # Type of FU issued
system.cpu.iq.FU_type_0::SimdPredAlu                0      0.00%     41.21% # Type of FU issued
system.cpu.iq.FU_type_0::MemRead                90974      0.04%     41.25% # Type of FU issued
system.cpu.iq.FU_type_0::MemWrite               98783      0.04%     41.30% # Type of FU issued
system.cpu.iq.FU_type_0::FloatMemRead            2496      0.00%     41.30% # Type of FU issued
system.cpu.iq.FU_type_0::FloatMemWrite      129252738     58.70%    100.00% # Type of FU issued
system.cpu.iq.FU_type_0::IprAccess                  0      0.00%    100.00% # Type of FU issued
system.cpu.iq.FU_type_0::InstPrefetch               0      0.00%    100.00% # Type of FU issued
system.cpu.iq.FU_type_0::total              220182756                       # Type of FU issued
system.cpu.iq.FU_type_1::No_OpClass              6030      0.00%      0.00% # Type of FU issued
system.cpu.iq.FU_type_1::IntAlu              90720153     41.22%     41.22% # Type of FU issued
system.cpu.iq.FU_type_1::IntMult                 1108      0.00%     41.22% # Type of FU issued
system.cpu.iq.FU_type_1::IntDiv                  1679      0.00%     41.23% # Type of FU issued
system.cpu.iq.FU_type_1::FloatAdd                 692      0.00%     41.23% # Type of FU issued
system.cpu.iq.FU_type_1::FloatCmp                   0      0.00%     41.23% # Type of FU issued
system.cpu.iq.FU_type_1::FloatCvt                  32      0.00%     41.23% # Type of FU issued
system.cpu.iq.FU_type_1::FloatMult                  0      0.00%     41.23% # Type of FU issued
system.cpu.iq.FU_type_1::FloatMultAcc               0      0.00%     41.23% # Type of FU issued
system.cpu.iq.FU_type_1::FloatDiv                   0      0.00%     41.23% # Type of FU issued
system.cpu.iq.FU_type_1::FloatMisc                  0      0.00%     41.23% # Type of FU issued
system.cpu.iq.FU_type_1::FloatSqrt                  0      0.00%     41.23% # Type of FU issued
system.cpu.iq.FU_type_1::SimdAdd                  517      0.00%     41.23% # Type of FU issued
system.cpu.iq.FU_type_1::SimdAddAcc                 0      0.00%     41.23% # Type of FU issued
system.cpu.iq.FU_type_1::SimdAlu                 1571      0.00%     41.23% # Type of FU issued
system.cpu.iq.FU_type_1::SimdCmp                   20      0.00%     41.23% # Type of FU issued
system.cpu.iq.FU_type_1::SimdCvt                 1269      0.00%     41.23% # Type of FU issued
system.cpu.iq.FU_type_1::SimdMisc                1183      0.00%     41.23% # Type of FU issued
system.cpu.iq.FU_type_1::SimdMult                   0      0.00%     41.23% # Type of FU issued
system.cpu.iq.FU_type_1::SimdMultAcc                0      0.00%     41.23% # Type of FU issued
system.cpu.iq.FU_type_1::SimdShift                112      0.00%     41.23% # Type of FU issued
system.cpu.iq.FU_type_1::SimdShiftAcc               0      0.00%     41.23% # Type of FU issued
system.cpu.iq.FU_type_1::SimdDiv                    0      0.00%     41.23% # Type of FU issued
system.cpu.iq.FU_type_1::SimdSqrt                   0      0.00%     41.23% # Type of FU issued
system.cpu.iq.FU_type_1::SimdFloatAdd               0      0.00%     41.23% # Type of FU issued
system.cpu.iq.FU_type_1::SimdFloatAlu               0      0.00%     41.23% # Type of FU issued
system.cpu.iq.FU_type_1::SimdFloatCmp               0      0.00%     41.23% # Type of FU issued
system.cpu.iq.FU_type_1::SimdFloatCvt               0      0.00%     41.23% # Type of FU issued
system.cpu.iq.FU_type_1::SimdFloatDiv               0      0.00%     41.23% # Type of FU issued
system.cpu.iq.FU_type_1::SimdFloatMisc              0      0.00%     41.23% # Type of FU issued
system.cpu.iq.FU_type_1::SimdFloatMult              0      0.00%     41.23% # Type of FU issued
system.cpu.iq.FU_type_1::SimdFloatMultAcc            0      0.00%     41.23% # Type of FU issued
system.cpu.iq.FU_type_1::SimdFloatSqrt              0      0.00%     41.23% # Type of FU issued
system.cpu.iq.FU_type_1::SimdReduceAdd              0      0.00%     41.23% # Type of FU issued
system.cpu.iq.FU_type_1::SimdReduceAlu              0      0.00%     41.23% # Type of FU issued
system.cpu.iq.FU_type_1::SimdReduceCmp              0      0.00%     41.23% # Type of FU issued
system.cpu.iq.FU_type_1::SimdFloatReduceAdd            0      0.00%     41.23% # Type of FU issued
system.cpu.iq.FU_type_1::SimdFloatReduceCmp            0      0.00%     41.23% # Type of FU issued
system.cpu.iq.FU_type_1::SimdAes                    0      0.00%     41.23% # Type of FU issued
system.cpu.iq.FU_type_1::SimdAesMix                 0      0.00%     41.23% # Type of FU issued
system.cpu.iq.FU_type_1::SimdSha1Hash               0      0.00%     41.23% # Type of FU issued
system.cpu.iq.FU_type_1::SimdSha1Hash2              0      0.00%     41.23% # Type of FU issued
system.cpu.iq.FU_type_1::SimdSha256Hash             0      0.00%     41.23% # Type of FU issued
system.cpu.iq.FU_type_1::SimdSha256Hash2            0      0.00%     41.23% # Type of FU issued
system.cpu.iq.FU_type_1::SimdShaSigma2              0      0.00%     41.23% # Type of FU issued
system.cpu.iq.FU_type_1::SimdShaSigma3              0      0.00%     41.23% # Type of FU issued
system.cpu.iq.FU_type_1::SimdPredAlu                0      0.00%     41.23% # Type of FU issued
system.cpu.iq.FU_type_1::MemRead                90744      0.04%     41.27% # Type of FU issued
system.cpu.iq.FU_type_1::MemWrite               98570      0.04%     41.31% # Type of FU issued
system.cpu.iq.FU_type_1::FloatMemRead            2576      0.00%     41.32% # Type of FU issued
system.cpu.iq.FU_type_1::FloatMemWrite      129153192     58.68%    100.00% # Type of FU issued
system.cpu.iq.FU_type_1::IprAccess                  0      0.00%    100.00% # Type of FU issued
system.cpu.iq.FU_type_1::InstPrefetch               0      0.00%    100.00% # Type of FU issued
system.cpu.iq.FU_type_1::total              220079448                       # Type of FU issued
system.cpu.iq.FU_type::total                440262204      0.00%      0.00% # Type of FU issued
system.cpu.iq.fp_alu_accesses               258438075                       # Number of floating point alu accesses
system.cpu.iq.fp_inst_queue_reads           520448372                       # Number of floating instruction queue reads
system.cpu.iq.fp_inst_queue_wakeup_accesses    226077855                       # Number of floating instruction queue wakeup accesses
system.cpu.iq.fp_inst_queue_writes          250102414                       # Number of floating instruction queue writes
system.cpu.iq.fu_busy_cnt::0                 48515075                       # FU busy when requested
system.cpu.iq.fu_busy_cnt::1                 54931197                       # FU busy when requested
system.cpu.iq.fu_busy_cnt::total            103446272                       # FU busy when requested
system.cpu.iq.fu_busy_rate::0                0.110196                       # FU busy rate (busy events/executed inst)
system.cpu.iq.fu_busy_rate::1                0.124769                       # FU busy rate (busy events/executed inst)
system.cpu.iq.fu_busy_rate::total            0.234965                       # FU busy rate (busy events/executed inst)
system.cpu.iq.fu_full::No_OpClass                   0      0.00%      0.00% # attempts to use FU when none available
system.cpu.iq.fu_full::IntAlu               103028753     99.60%     99.60% # attempts to use FU when none available
system.cpu.iq.fu_full::IntMult                     33      0.00%     99.60% # attempts to use FU when none available
system.cpu.iq.fu_full::IntDiv                   15700      0.02%     99.61% # attempts to use FU when none available
system.cpu.iq.fu_full::FloatAdd                  1128      0.00%     99.61% # attempts to use FU when none available
system.cpu.iq.fu_full::FloatCmp                     0      0.00%     99.61% # attempts to use FU when none available
system.cpu.iq.fu_full::FloatCvt                    31      0.00%     99.61% # attempts to use FU when none available
system.cpu.iq.fu_full::FloatMult                    0      0.00%     99.61% # attempts to use FU when none available
system.cpu.iq.fu_full::FloatMultAcc                 0      0.00%     99.61% # attempts to use FU when none available
system.cpu.iq.fu_full::FloatDiv                     0      0.00%     99.61% # attempts to use FU when none available
system.cpu.iq.fu_full::FloatMisc                    0      0.00%     99.61% # attempts to use FU when none available
system.cpu.iq.fu_full::FloatSqrt                    0      0.00%     99.61% # attempts to use FU when none available
system.cpu.iq.fu_full::SimdAdd                    934      0.00%     99.61% # attempts to use FU when none available
system.cpu.iq.fu_full::SimdAddAcc                   0      0.00%     99.61% # attempts to use FU when none available
system.cpu.iq.fu_full::SimdAlu                   1604      0.00%     99.62% # attempts to use FU when none available
system.cpu.iq.fu_full::SimdCmp                     36      0.00%     99.62% # attempts to use FU when none available
system.cpu.iq.fu_full::SimdCvt                   1911      0.00%     99.62% # attempts to use FU when none available
system.cpu.iq.fu_full::SimdMisc                  1806      0.00%     99.62% # attempts to use FU when none available
system.cpu.iq.fu_full::SimdMult                     0      0.00%     99.62% # attempts to use FU when none available
system.cpu.iq.fu_full::SimdMultAcc                  0      0.00%     99.62% # attempts to use FU when none available
system.cpu.iq.fu_full::SimdShift                  122      0.00%     99.62% # attempts to use FU when none available
system.cpu.iq.fu_full::SimdShiftAcc                 0      0.00%     99.62% # attempts to use FU when none available
system.cpu.iq.fu_full::SimdDiv                      0      0.00%     99.62% # attempts to use FU when none available
system.cpu.iq.fu_full::SimdSqrt                     0      0.00%     99.62% # attempts to use FU when none available
system.cpu.iq.fu_full::SimdFloatAdd                 0      0.00%     99.62% # attempts to use FU when none available
system.cpu.iq.fu_full::SimdFloatAlu                 0      0.00%     99.62% # attempts to use FU when none available
system.cpu.iq.fu_full::SimdFloatCmp                 0      0.00%     99.62% # attempts to use FU when none available
system.cpu.iq.fu_full::SimdFloatCvt                 0      0.00%     99.62% # attempts to use FU when none available
system.cpu.iq.fu_full::SimdFloatDiv                 0      0.00%     99.62% # attempts to use FU when none available
system.cpu.iq.fu_full::SimdFloatMisc                0      0.00%     99.62% # attempts to use FU when none available
system.cpu.iq.fu_full::SimdFloatMult                0      0.00%     99.62% # attempts to use FU when none available
system.cpu.iq.fu_full::SimdFloatMultAcc             0      0.00%     99.62% # attempts to use FU when none available
system.cpu.iq.fu_full::SimdFloatSqrt                0      0.00%     99.62% # attempts to use FU when none available
system.cpu.iq.fu_full::SimdReduceAdd                0      0.00%     99.62% # attempts to use FU when none available
system.cpu.iq.fu_full::SimdReduceAlu                0      0.00%     99.62% # attempts to use FU when none available
system.cpu.iq.fu_full::SimdReduceCmp                0      0.00%     99.62% # attempts to use FU when none available
system.cpu.iq.fu_full::SimdFloatReduceAdd            0      0.00%     99.62% # attempts to use FU when none available
system.cpu.iq.fu_full::SimdFloatReduceCmp            0      0.00%     99.62% # attempts to use FU when none available
system.cpu.iq.fu_full::SimdAes                      0      0.00%     99.62% # attempts to use FU when none available
system.cpu.iq.fu_full::SimdAesMix                   0      0.00%     99.62% # attempts to use FU when none available
system.cpu.iq.fu_full::SimdSha1Hash                 0      0.00%     99.62% # attempts to use FU when none available
system.cpu.iq.fu_full::SimdSha1Hash2                0      0.00%     99.62% # attempts to use FU when none available
system.cpu.iq.fu_full::SimdSha256Hash               0      0.00%     99.62% # attempts to use FU when none available
system.cpu.iq.fu_full::SimdSha256Hash2              0      0.00%     99.62% # attempts to use FU when none available
system.cpu.iq.fu_full::SimdShaSigma2                0      0.00%     99.62% # attempts to use FU when none available
system.cpu.iq.fu_full::SimdShaSigma3                0      0.00%     99.62% # attempts to use FU when none available
system.cpu.iq.fu_full::SimdPredAlu                  0      0.00%     99.62% # attempts to use FU when none available
system.cpu.iq.fu_full::MemRead                 189197      0.18%     99.80% # attempts to use FU when none available
system.cpu.iq.fu_full::MemWrite                205017      0.20%    100.00% # attempts to use FU when none available
system.cpu.iq.fu_full::FloatMemRead                 0      0.00%    100.00% # attempts to use FU when none available
system.cpu.iq.fu_full::FloatMemWrite                0      0.00%    100.00% # attempts to use FU when none available
system.cpu.iq.fu_full::IprAccess                    0      0.00%    100.00% # attempts to use FU when none available
system.cpu.iq.fu_full::InstPrefetch                 0      0.00%    100.00% # attempts to use FU when none available
system.cpu.iq.int_alu_accesses              388307861                       # Number of integer alu accesses
system.cpu.iq.int_inst_queue_reads         2950581032                       # Number of integer instruction queue reads
system.cpu.iq.int_inst_queue_wakeup_accesses    181796488                       # Number of integer instruction queue wakeup accesses
system.cpu.iq.int_inst_queue_writes         190488358                       # Number of integer instruction queue writes
system.cpu.iq.iqInstsAdded                  420130258                       # Number of instructions added to the IQ (excludes non-spec)
system.cpu.iq.iqInstsIssued                 440262204                       # Number of instructions issued
system.cpu.iq.iqNonSpecInstsAdded                 118                       # Number of non-speculative instructions added to the IQ
system.cpu.iq.iqSquashedInstsExamined        20460208                       # Number of squashed instructions iterated over during squash; mainly for profiling
system.cpu.iq.iqSquashedInstsIssued           3641122                       # Number of squashed instructions issued
system.cpu.iq.iqSquashedNonSpecRemoved             58                       # Number of squashed non-spec instructions that were removed
system.cpu.iq.iqSquashedOperandsExamined     48765472                       # Number of squashed operands that are examined and possibly removed from graph
system.cpu.iq.issued_per_cycle::samples    2380367988                       # Number of insts issued each cycle
system.cpu.iq.issued_per_cycle::mean         0.184956                       # Number of insts issued each cycle
system.cpu.iq.issued_per_cycle::stdev        0.599194                       # Number of insts issued each cycle
system.cpu.iq.issued_per_cycle::underflows            0      0.00%      0.00% # Number of insts issued each cycle
system.cpu.iq.issued_per_cycle::0          2099537770     88.20%     88.20% # Number of insts issued each cycle
system.cpu.iq.issued_per_cycle::1           180707984      7.59%     95.79% # Number of insts issued each cycle
system.cpu.iq.issued_per_cycle::2            61101354      2.57%     98.36% # Number of insts issued each cycle
system.cpu.iq.issued_per_cycle::3            22789636      0.96%     99.32% # Number of insts issued each cycle
system.cpu.iq.issued_per_cycle::4            14660657      0.62%     99.93% # Number of insts issued each cycle
system.cpu.iq.issued_per_cycle::5              636657      0.03%     99.96% # Number of insts issued each cycle
system.cpu.iq.issued_per_cycle::6              151309      0.01%     99.97% # Number of insts issued each cycle
system.cpu.iq.issued_per_cycle::7               12131      0.00%     99.97% # Number of insts issued each cycle
system.cpu.iq.issued_per_cycle::8              770490      0.03%    100.00% # Number of insts issued each cycle
system.cpu.iq.issued_per_cycle::overflows            0      0.00%    100.00% # Number of insts issued each cycle
system.cpu.iq.issued_per_cycle::min_value            0                       # Number of insts issued each cycle
system.cpu.iq.issued_per_cycle::max_value            8                       # Number of insts issued each cycle
system.cpu.iq.issued_per_cycle::total      2380367988                       # Number of insts issued each cycle
system.cpu.iq.rate                           0.184951                       # Inst issue rate
system.cpu.iq.vec_alu_accesses                      0                       # Number of vector alu accesses
system.cpu.iq.vec_inst_queue_reads                  0                       # Number of vector instruction queue reads
system.cpu.iq.vec_inst_queue_wakeup_accesses            0                       # Number of vector instruction queue wakeup accesses
system.cpu.iq.vec_inst_queue_writes                 0                       # Number of vector instruction queue writes
system.cpu.memDep0.conflictingLoads              7535                       # Number of conflicting loads.
system.cpu.memDep0.conflictingStores             7081                       # Number of conflicting stores.
system.cpu.memDep0.insertedLoads                95567                       # Number of loads inserted to the mem dependence unit.
system.cpu.memDep0.insertedStores           119177626                       # Number of stores inserted to the mem dependence unit.
system.cpu.memDep1.conflictingLoads              7144                       # Number of conflicting loads.
system.cpu.memDep1.conflictingStores             6934                       # Number of conflicting stores.
system.cpu.memDep1.insertedLoads                94494                       # Number of loads inserted to the mem dependence unit.
system.cpu.memDep1.insertedStores           119096108                       # Number of stores inserted to the mem dependence unit.
system.cpu.misc_regfile_reads               319230603                       # number of misc regfile reads
system.cpu.misc_regfile_writes                     36                       # number of misc regfile writes
system.cpu.numCycles                       2380425388                       # number of cpu cycles simulated
system.cpu.numWorkItemsCompleted                    0                       # number of work items this cpu completed
system.cpu.numWorkItemsStarted                      0                       # number of work items this cpu started
system.cpu.timesIdled                            1059                       # Number of times that the entire CPU went into an idle state and unscheduled itself
system.cpu.workload0.numSyscalls                   35                       # Number of system calls
system.cpu.workload1.numSyscalls                   35                       # Number of system calls
system.membus.snoop_filter.hit_multi_requests            0                       # Number of requests hitting in the snoop filter with multiple (>1) holders of the requested data.
system.membus.snoop_filter.hit_multi_snoops            0                       # Number of snoops hitting in the snoop filter with multiple (>1) holders of the requested data.
system.membus.snoop_filter.hit_single_requests     28229004                       # Number of requests hitting in the snoop filter with a single holder of the requested data.
system.membus.snoop_filter.hit_single_snoops            0                       # Number of snoops hitting in the snoop filter with a single holder of the requested data.
system.membus.snoop_filter.tot_requests      56497263                       # Total number of requests made to the snoop filter.
system.membus.snoop_filter.tot_snoops               0                       # Total number of snoops made to the snoop filter.
system.tol2bus.snoop_filter.hit_multi_requests           18                       # Number of requests hitting in the snoop filter with multiple (>1) holders of the requested data.
system.tol2bus.snoop_filter.hit_multi_snoops            0                       # Number of snoops hitting in the snoop filter with multiple (>1) holders of the requested data.
system.tol2bus.snoop_filter.hit_single_requests     28271849                       # Number of requests hitting in the snoop filter with a single holder of the requested data.
system.tol2bus.snoop_filter.hit_single_snoops          251                       # Number of snoops hitting in the snoop filter with a single holder of the requested data.
system.tol2bus.snoop_filter.tot_requests     56544320                       # Total number of requests made to the snoop filter.
system.tol2bus.snoop_filter.tot_snoops            251                       # Total number of snoops made to the snoop filter.
sim_insts                                   199999874                       # Number of instructions simulated
sim_ops                                     399670166                       # Number of ops (including micro ops) simulated
host_inst_rate                                  60135                       # Simulator instruction rate (inst/s)
host_op_rate                                   120171                       # Simulator op (including micro ops) rate (op/s)
system.clk_domain.clock                          1000                       # Clock period in ticks
system.cpu.branchPred.lookups                31635746                       # Number of BP lookups
system.cpu.branchPred.condPredicted          31531389                       # Number of conditional branches predicted
system.cpu.branchPred.condIncorrect             17166                       # Number of conditional branches incorrect
system.cpu.branchPred.BTBLookups             31345211                       # Number of BTB lookups
system.cpu.branchPred.BTBHits                31341643                       # Number of BTB hits
system.cpu.branchPred.BTBHitPct             99.988617                       # BTB Hit Percentage
system.cpu.branchPred.RASUsed                    6750                       # Number of times the RAS was used to get a target.
system.cpu.branchPred.RASIncorrect                 10                       # Number of incorrect RAS predictions.
system.cpu.branchPred.indirectLookups            2290                       # Number of indirect predictor lookups.
system.cpu.branchPred.indirectHits                418                       # Number of indirect target hits.
system.cpu.branchPred.indirectMisses             1872                       # Number of indirect misses.
system.cpu.branchPred.indirectMispredicted          526                       # Number of mispredicted indirect branches.
system.cpu.branchPred.power_state.pwrStateResidencyTicks::UNDEFINED 1190212693500                       # Cumulative time (in ticks) in various power states
system.cpu.commit.commitSquashedInsts        19862307                       # The number of squashed insts skipped by commit
system.cpu.commit.commitNonSpecStalls              60                       # The number of times commit has been forced to stall to communicate backwards
system.cpu.commit.branchMispredicts             15354                       # The number of times a branch was mispredicted
system.cpu.commit.numCommittedDist::samples   2380366198                       # Number of insts commited each cycle
system.cpu.commit.numCommittedDist::mean     0.167903                       # Number of insts commited each cycle
system.cpu.commit.numCommittedDist::stdev     0.638629                       # Number of insts commited each cycle
system.cpu.commit.numCommittedDist::underflows            0      0.00%      0.00% # Number of insts commited each cycle
system.cpu.commit.numCommittedDist::0      2158869511     90.69%     90.69% # Number of insts commited each cycle
system.cpu.commit.numCommittedDist::1       135023312      5.67%     96.37% # Number of insts commited each cycle
system.cpu.commit.numCommittedDist::2        26865028      1.13%     97.50% # Number of insts commited each cycle
system.cpu.commit.numCommittedDist::3        35460491      1.49%     98.99% # Number of insts commited each cycle
system.cpu.commit.numCommittedDist::4        21136338      0.89%     99.87% # Number of insts commited each cycle
system.cpu.commit.numCommittedDist::5          962517      0.04%     99.91% # Number of insts commited each cycle
system.cpu.commit.numCommittedDist::6          570591      0.02%     99.94% # Number of insts commited each cycle
system.cpu.commit.numCommittedDist::7           73438      0.00%     99.94% # Number of insts commited each cycle
system.cpu.commit.numCommittedDist::8         1404972      0.06%    100.00% # Number of insts commited each cycle
system.cpu.commit.numCommittedDist::overflows            0      0.00%    100.00% # Number of insts commited each cycle
system.cpu.commit.numCommittedDist::min_value            0                       # Number of insts commited each cycle
system.cpu.commit.numCommittedDist::max_value            8                       # Number of insts commited each cycle
system.cpu.commit.numCommittedDist::total   2380366198                       # Number of insts commited each cycle
system.cpu.commit.instsCommitted::0          99999874                       # Number of instructions committed
system.cpu.commit.instsCommitted::1         100000000                       # Number of instructions committed
system.cpu.commit.instsCommitted::total     199999874                       # Number of instructions committed
system.cpu.commit.opsCommitted::0           199834957                       # Number of ops (including micro ops) committed
system.cpu.commit.opsCommitted::1           199835209                       # Number of ops (including micro ops) committed
system.cpu.commit.opsCommitted::total       399670166                       # Number of ops (including micro ops) committed
system.cpu.commit.memRefs::0                113191031                       # Number of memory references committed
system.cpu.commit.memRefs::1                113191175                       # Number of memory references committed
system.cpu.commit.memRefs::total            226382206                       # Number of memory references committed
system.cpu.commit.loads::0                      65801                       # Number of loads committed
system.cpu.commit.loads::1                      65801                       # Number of loads committed
system.cpu.commit.loads::total                 131602                       # Number of loads committed
system.cpu.commit.amos::0                           0                       # Number of atomic instructions committed
system.cpu.commit.amos::1                           0                       # Number of atomic instructions committed
system.cpu.commit.amos::total                       0                       # Number of atomic instructions committed
system.cpu.commit.membars::0                        8                       # Number of memory barriers committed
system.cpu.commit.membars::1                        8                       # Number of memory barriers committed
system.cpu.commit.membars::total                   16                       # Number of memory barriers committed
system.cpu.commit.branches::0                14429673                       # Number of branches committed
system.cpu.commit.branches::1                14429691                       # Number of branches committed
system.cpu.commit.branches::total            28859364                       # Number of branches committed
system.cpu.commit.vector::0                         0                       # Number of committed Vector instructions.
system.cpu.commit.vector::1                         0                       # Number of committed Vector instructions.
system.cpu.commit.vector::total                     0                       # Number of committed Vector instructions.
system.cpu.commit.floating::0               113036230                       # Number of committed floating point instructions.
system.cpu.commit.floating::1               113036374                       # Number of committed floating point instructions.
system.cpu.commit.floating::total           226072604                       # Number of committed floating point instructions.
system.cpu.commit.integer::0                199827206                       # Number of committed integer instructions.
system.cpu.commit.integer::1                199827458                       # Number of committed integer instructions.
system.cpu.commit.integer::total            399654664                       # Number of committed integer instructions.
system.cpu.commit.functionCalls::0               2692                       # Number of function calls committed.
system.cpu.commit.functionCalls::1               2692                       # Number of function calls committed.
system.cpu.commit.functionCalls::total           5384                       # Number of function calls committed.
system.cpu.commit.committedInstType_0::No_OpClass         4296      0.00%      0.00% # Class of committed instruction
system.cpu.commit.committedInstType_0::IntAlu     86632941     43.35%     43.35% # Class of committed instruction
system.cpu.commit.committedInstType_0::IntMult         1095      0.00%     43.35% # Class of committed instruction
system.cpu.commit.committedInstType_0::IntDiv         1666      0.00%     43.36% # Class of committed instruction
system.cpu.commit.committedInstType_0::FloatAdd          432      0.00%     43.36% # Class of committed instruction
system.cpu.commit.committedInstType_0::FloatCmp            0      0.00%     43.36% # Class of committed instruction
system.cpu.commit.committedInstType_0::FloatCvt           32      0.00%     43.36% # Class of committed instruction
system.cpu.commit.committedInstType_0::FloatMult            0      0.00%     43.36% # Class of committed instruction
system.cpu.commit.committedInstType_0::FloatMultAcc            0      0.00%     43.36% # Class of committed instruction
system.cpu.commit.committedInstType_0::FloatDiv            0      0.00%     43.36% # Class of committed instruction
system.cpu.commit.committedInstType_0::FloatMisc            0      0.00%     43.36% # Class of committed instruction
system.cpu.commit.committedInstType_0::FloatSqrt            0      0.00%     43.36% # Class of committed instruction
system.cpu.commit.committedInstType_0::SimdAdd          434      0.00%     43.36% # Class of committed instruction
system.cpu.commit.committedInstType_0::SimdAddAcc            0      0.00%     43.36% # Class of committed instruction
system.cpu.commit.committedInstType_0::SimdAlu          887      0.00%     43.36% # Class of committed instruction
system.cpu.commit.committedInstType_0::SimdCmp           20      0.00%     43.36% # Class of committed instruction
system.cpu.commit.committedInstType_0::SimdCvt          988      0.00%     43.36% # Class of committed instruction
system.cpu.commit.committedInstType_0::SimdMisc         1028      0.00%     43.36% # Class of committed instruction
system.cpu.commit.committedInstType_0::SimdMult            0      0.00%     43.36% # Class of committed instruction
system.cpu.commit.committedInstType_0::SimdMultAcc            0      0.00%     43.36% # Class of committed instruction
system.cpu.commit.committedInstType_0::SimdShift          107      0.00%     43.36% # Class of committed instruction
system.cpu.commit.committedInstType_0::SimdShiftAcc            0      0.00%     43.36% # Class of committed instruction
system.cpu.commit.committedInstType_0::SimdDiv            0      0.00%     43.36% # Class of committed instruction
system.cpu.commit.committedInstType_0::SimdSqrt            0      0.00%     43.36% # Class of committed instruction
system.cpu.commit.committedInstType_0::SimdFloatAdd            0      0.00%     43.36% # Class of committed instruction
system.cpu.commit.committedInstType_0::SimdFloatAlu            0      0.00%     43.36% # Class of committed instruction
system.cpu.commit.committedInstType_0::SimdFloatCmp            0      0.00%     43.36% # Class of committed instruction
system.cpu.commit.committedInstType_0::SimdFloatCvt            0      0.00%     43.36% # Class of committed instruction
system.cpu.commit.committedInstType_0::SimdFloatDiv            0      0.00%     43.36% # Class of committed instruction
system.cpu.commit.committedInstType_0::SimdFloatMisc            0      0.00%     43.36% # Class of committed instruction
system.cpu.commit.committedInstType_0::SimdFloatMult            0      0.00%     43.36% # Class of committed instruction
system.cpu.commit.committedInstType_0::SimdFloatMultAcc            0      0.00%     43.36% # Class of committed instruction
system.cpu.commit.committedInstType_0::SimdFloatSqrt            0      0.00%     43.36% # Class of committed instruction
system.cpu.commit.committedInstType_0::SimdReduceAdd            0      0.00%     43.36% # Class of committed instruction
system.cpu.commit.committedInstType_0::SimdReduceAlu            0      0.00%     43.36% # Class of committed instruction
system.cpu.commit.committedInstType_0::SimdReduceCmp            0      0.00%     43.36% # Class of committed instruction
system.cpu.commit.committedInstType_0::SimdFloatReduceAdd            0      0.00%     43.36% # Class of committed instruction
system.cpu.commit.committedInstType_0::SimdFloatReduceCmp            0      0.00%     43.36% # Class of committed instruction
system.cpu.commit.committedInstType_0::SimdAes            0      0.00%     43.36% # Class of committed instruction
system.cpu.commit.committedInstType_0::SimdAesMix            0      0.00%     43.36% # Class of committed instruction
system.cpu.commit.committedInstType_0::SimdSha1Hash            0      0.00%     43.36% # Class of committed instruction
system.cpu.commit.committedInstType_0::SimdSha1Hash2            0      0.00%     43.36% # Class of committed instruction
system.cpu.commit.committedInstType_0::SimdSha256Hash            0      0.00%     43.36% # Class of committed instruction
system.cpu.commit.committedInstType_0::SimdSha256Hash2            0      0.00%     43.36% # Class of committed instruction
system.cpu.commit.committedInstType_0::SimdShaSigma2            0      0.00%     43.36% # Class of committed instruction
system.cpu.commit.committedInstType_0::SimdShaSigma3            0      0.00%     43.36% # Class of committed instruction
system.cpu.commit.committedInstType_0::SimdPredAlu            0      0.00%     43.36% # Class of committed instruction
system.cpu.commit.committedInstType_0::MemRead        64619      0.03%     43.39% # Class of committed instruction
system.cpu.commit.committedInstType_0::MemWrite        94453      0.05%     43.44% # Class of committed instruction
system.cpu.commit.committedInstType_0::FloatMemRead         1182      0.00%     43.44% # Class of committed instruction
system.cpu.commit.committedInstType_0::FloatMemWrite    113030777     56.56%    100.00% # Class of committed instruction
system.cpu.commit.committedInstType_0::IprAccess            0      0.00%    100.00% # Class of committed instruction
system.cpu.commit.committedInstType_0::InstPrefetch            0      0.00%    100.00% # Class of committed instruction
system.cpu.commit.committedInstType_0::total    199834957                       # Class of committed instruction
system.cpu.commit.committedInstType_1::No_OpClass         4296      0.00%      0.00% # Class of committed instruction
system.cpu.commit.committedInstType_1::IntAlu     86633049     43.35%     43.35% # Class of committed instruction
system.cpu.commit.committedInstType_1::IntMult         1095      0.00%     43.35% # Class of committed instruction
system.cpu.commit.committedInstType_1::IntDiv         1666      0.00%     43.36% # Class of committed instruction
system.cpu.commit.committedInstType_1::FloatAdd          432      0.00%     43.36% # Class of committed instruction
system.cpu.commit.committedInstType_1::FloatCmp            0      0.00%     43.36% # Class of committed instruction
system.cpu.commit.committedInstType_1::FloatCvt           32      0.00%     43.36% # Class of committed instruction
system.cpu.commit.committedInstType_1::FloatMult            0      0.00%     43.36% # Class of committed instruction
system.cpu.commit.committedInstType_1::FloatMultAcc            0      0.00%     43.36% # Class of committed instruction
system.cpu.commit.committedInstType_1::FloatDiv            0      0.00%     43.36% # Class of committed instruction
system.cpu.commit.committedInstType_1::FloatMisc            0      0.00%     43.36% # Class of committed instruction
system.cpu.commit.committedInstType_1::FloatSqrt            0      0.00%     43.36% # Class of committed instruction
system.cpu.commit.committedInstType_1::SimdAdd          434      0.00%     43.36% # Class of committed instruction
system.cpu.commit.committedInstType_1::SimdAddAcc            0      0.00%     43.36% # Class of committed instruction
system.cpu.commit.committedInstType_1::SimdAlu          887      0.00%     43.36% # Class of committed instruction
system.cpu.commit.committedInstType_1::SimdCmp           20      0.00%     43.36% # Class of committed instruction
system.cpu.commit.committedInstType_1::SimdCvt          988      0.00%     43.36% # Class of committed instruction
system.cpu.commit.committedInstType_1::SimdMisc         1028      0.00%     43.36% # Class of committed instruction
system.cpu.commit.committedInstType_1::SimdMult            0      0.00%     43.36% # Class of committed instruction
system.cpu.commit.committedInstType_1::SimdMultAcc            0      0.00%     43.36% # Class of committed instruction
system.cpu.commit.committedInstType_1::SimdShift          107      0.00%     43.36% # Class of committed instruction
system.cpu.commit.committedInstType_1::SimdShiftAcc            0      0.00%     43.36% # Class of committed instruction
system.cpu.commit.committedInstType_1::SimdDiv            0      0.00%     43.36% # Class of committed instruction
system.cpu.commit.committedInstType_1::SimdSqrt            0      0.00%     43.36% # Class of committed instruction
system.cpu.commit.committedInstType_1::SimdFloatAdd            0      0.00%     43.36% # Class of committed instruction
system.cpu.commit.committedInstType_1::SimdFloatAlu            0      0.00%     43.36% # Class of committed instruction
system.cpu.commit.committedInstType_1::SimdFloatCmp            0      0.00%     43.36% # Class of committed instruction
system.cpu.commit.committedInstType_1::SimdFloatCvt            0      0.00%     43.36% # Class of committed instruction
system.cpu.commit.committedInstType_1::SimdFloatDiv            0      0.00%     43.36% # Class of committed instruction
system.cpu.commit.committedInstType_1::SimdFloatMisc            0      0.00%     43.36% # Class of committed instruction
system.cpu.commit.committedInstType_1::SimdFloatMult            0      0.00%     43.36% # Class of committed instruction
system.cpu.commit.committedInstType_1::SimdFloatMultAcc            0      0.00%     43.36% # Class of committed instruction
system.cpu.commit.committedInstType_1::SimdFloatSqrt            0      0.00%     43.36% # Class of committed instruction
system.cpu.commit.committedInstType_1::SimdReduceAdd            0      0.00%     43.36% # Class of committed instruction
system.cpu.commit.committedInstType_1::SimdReduceAlu            0      0.00%     43.36% # Class of committed instruction
system.cpu.commit.committedInstType_1::SimdReduceCmp            0      0.00%     43.36% # Class of committed instruction
system.cpu.commit.committedInstType_1::SimdFloatReduceAdd            0      0.00%     43.36% # Class of committed instruction
system.cpu.commit.committedInstType_1::SimdFloatReduceCmp            0      0.00%     43.36% # Class of committed instruction
system.cpu.commit.committedInstType_1::SimdAes            0      0.00%     43.36% # Class of committed instruction
system.cpu.commit.committedInstType_1::SimdAesMix            0      0.00%     43.36% # Class of committed instruction
system.cpu.commit.committedInstType_1::SimdSha1Hash            0      0.00%     43.36% # Class of committed instruction
system.cpu.commit.committedInstType_1::SimdSha1Hash2            0      0.00%     43.36% # Class of committed instruction
system.cpu.commit.committedInstType_1::SimdSha256Hash            0      0.00%     43.36% # Class of committed instruction
system.cpu.commit.committedInstType_1::SimdSha256Hash2            0      0.00%     43.36% # Class of committed instruction
system.cpu.commit.committedInstType_1::SimdShaSigma2            0      0.00%     43.36% # Class of committed instruction
system.cpu.commit.committedInstType_1::SimdShaSigma3            0      0.00%     43.36% # Class of committed instruction
system.cpu.commit.committedInstType_1::SimdPredAlu            0      0.00%     43.36% # Class of committed instruction
system.cpu.commit.committedInstType_1::MemRead        64619      0.03%     43.39% # Class of committed instruction
system.cpu.commit.committedInstType_1::MemWrite        94453      0.05%     43.44% # Class of committed instruction
system.cpu.commit.committedInstType_1::FloatMemRead         1182      0.00%     43.44% # Class of committed instruction
system.cpu.commit.committedInstType_1::FloatMemWrite    113030921     56.56%    100.00% # Class of committed instruction
system.cpu.commit.committedInstType_1::IprAccess            0      0.00%    100.00% # Class of committed instruction
system.cpu.commit.committedInstType_1::InstPrefetch            0      0.00%    100.00% # Class of committed instruction
system.cpu.commit.committedInstType_1::total    199835209                       # Class of committed instruction
system.cpu.commit.committedInstType::total    399670166      0.00%      0.00% # Class of committed instruction
system.cpu.commit.commitEligibleSamples       1404972                       # number cycles where commit BW limit reached
system.cpu.dcache.demand_hits::.cpu.data    198109957                       # number of demand (read+write) hits
system.cpu.dcache.demand_hits::total        198109957                       # number of demand (read+write) hits
system.cpu.dcache.overall_hits::.cpu.data    198109957                       # number of overall hits
system.cpu.dcache.overall_hits::total       198109957                       # number of overall hits
system.cpu.dcache.demand_misses::.cpu.data     28287045                       # number of demand (read+write) misses
system.cpu.dcache.demand_misses::total       28287045                       # number of demand (read+write) misses
system.cpu.dcache.overall_misses::.cpu.data     28287045                       # number of overall misses
system.cpu.dcache.overall_misses::total      28287045                       # number of overall misses
system.cpu.dcache.demand_miss_latency::.cpu.data 2162962443858                       # number of demand (read+write) miss cycles
system.cpu.dcache.demand_miss_latency::total 2162962443858                       # number of demand (read+write) miss cycles
system.cpu.dcache.overall_miss_latency::.cpu.data 2162962443858                       # number of overall miss cycles
system.cpu.dcache.overall_miss_latency::total 2162962443858                       # number of overall miss cycles
system.cpu.dcache.demand_accesses::.cpu.data    226397002                       # number of demand (read+write) accesses
system.cpu.dcache.demand_accesses::total    226397002                       # number of demand (read+write) accesses
system.cpu.dcache.overall_accesses::.cpu.data    226397002                       # number of overall (read+write) accesses
system.cpu.dcache.overall_accesses::total    226397002                       # number of overall (read+write) accesses
system.cpu.dcache.demand_miss_rate::.cpu.data     0.124944                       # miss rate for demand accesses
system.cpu.dcache.demand_miss_rate::total     0.124944                       # miss rate for demand accesses
system.cpu.dcache.overall_miss_rate::.cpu.data     0.124944                       # miss rate for overall accesses
system.cpu.dcache.overall_miss_rate::total     0.124944                       # miss rate for overall accesses
system.cpu.dcache.demand_avg_miss_latency::.cpu.data 76464.771907                       # average overall miss latency
system.cpu.dcache.demand_avg_miss_latency::total 76464.771907                       # average overall miss latency
system.cpu.dcache.overall_avg_miss_latency::.cpu.data 76464.771907                       # average overall miss latency
system.cpu.dcache.overall_avg_miss_latency::total 76464.771907                       # average overall miss latency
system.cpu.dcache.blocked_cycles::no_mshrs            1                       # number of cycles access was blocked
system.cpu.dcache.blocked_cycles::no_targets        63835                       # number of cycles access was blocked
system.cpu.dcache.blocked::no_mshrs                 1                       # number of cycles access was blocked
system.cpu.dcache.blocked::no_targets             866                       # number of cycles access was blocked
system.cpu.dcache.avg_blocked_cycles::no_mshrs            1                       # average number of cycles each access was blocked
system.cpu.dcache.avg_blocked_cycles::no_targets    73.712471                       # average number of cycles each access was blocked
system.cpu.dcache.writebacks::.writebacks     28269389                       # number of writebacks
system.cpu.dcache.writebacks::total          28269389                       # number of writebacks
system.cpu.dcache.demand_mshr_hits::.cpu.data        17546                       # number of demand (read+write) MSHR hits
system.cpu.dcache.demand_mshr_hits::total        17546                       # number of demand (read+write) MSHR hits
system.cpu.dcache.overall_mshr_hits::.cpu.data        17546                       # number of overall MSHR hits
system.cpu.dcache.overall_mshr_hits::total        17546                       # number of overall MSHR hits
system.cpu.dcache.demand_mshr_misses::.cpu.data     28269499                       # number of demand (read+write) MSHR misses
system.cpu.dcache.demand_mshr_misses::total     28269499                       # number of demand (read+write) MSHR misses
system.cpu.dcache.overall_mshr_misses::.cpu.data     28269499                       # number of overall MSHR misses
system.cpu.dcache.overall_mshr_misses::total     28269499                       # number of overall MSHR misses
system.cpu.dcache.demand_mshr_miss_latency::.cpu.data 2133780426858                       # number of demand (read+write) MSHR miss cycles
system.cpu.dcache.demand_mshr_miss_latency::total 2133780426858                       # number of demand (read+write) MSHR miss cycles
system.cpu.dcache.overall_mshr_miss_latency::.cpu.data 2133780426858                       # number of overall MSHR miss cycles
system.cpu.dcache.overall_mshr_miss_latency::total 2133780426858                       # number of overall MSHR miss cycles
system.cpu.dcache.demand_mshr_miss_rate::.cpu.data     0.124867                       # mshr miss rate for demand accesses
system.cpu.dcache.demand_mshr_miss_rate::total     0.124867                       # mshr miss rate for demand accesses
system.cpu.dcache.overall_mshr_miss_rate::.cpu.data     0.124867                       # mshr miss rate for overall accesses
system.cpu.dcache.overall_mshr_miss_rate::total     0.124867                       # mshr miss rate for overall accesses
system.cpu.dcache.demand_avg_mshr_miss_latency::.cpu.data 75479.951974                       # average overall mshr miss latency
system.cpu.dcache.demand_avg_mshr_miss_latency::total 75479.951974                       # average overall mshr miss latency
system.cpu.dcache.overall_avg_mshr_miss_latency::.cpu.data 75479.951974                       # average overall mshr miss latency
system.cpu.dcache.overall_avg_mshr_miss_latency::total 75479.951974                       # average overall mshr miss latency
system.cpu.dcache.replacements                     29                       # number of replacements
system.cpu.dcache.expired                    28269360                       # dead blocks evicted
system.cpu.dcache.ReadReq_hits::.cpu.data       121470                       # number of ReadReq hits
system.cpu.dcache.ReadReq_hits::total          121470                       # number of ReadReq hits
system.cpu.dcache.ReadReq_misses::.cpu.data        24966                       # number of ReadReq misses
system.cpu.dcache.ReadReq_misses::total         24966                       # number of ReadReq misses
system.cpu.dcache.ReadReq_miss_latency::.cpu.data   1250069000                       # number of ReadReq miss cycles
system.cpu.dcache.ReadReq_miss_latency::total   1250069000                       # number of ReadReq miss cycles
system.cpu.dcache.ReadReq_accesses::.cpu.data       146436                       # number of ReadReq accesses(hits+misses)
system.cpu.dcache.ReadReq_accesses::total       146436                       # number of ReadReq accesses(hits+misses)
system.cpu.dcache.ReadReq_miss_rate::.cpu.data     0.170491                       # miss rate for ReadReq accesses
system.cpu.dcache.ReadReq_miss_rate::total     0.170491                       # miss rate for ReadReq accesses
system.cpu.dcache.ReadReq_avg_miss_latency::.cpu.data 50070.856365                       # average ReadReq miss latency
system.cpu.dcache.ReadReq_avg_miss_latency::total 50070.856365                       # average ReadReq miss latency
system.cpu.dcache.ReadReq_mshr_hits::.cpu.data        17535                       # number of ReadReq MSHR hits
system.cpu.dcache.ReadReq_mshr_hits::total        17535                       # number of ReadReq MSHR hits
system.cpu.dcache.ReadReq_mshr_misses::.cpu.data         7431                       # number of ReadReq MSHR misses
system.cpu.dcache.ReadReq_mshr_misses::total         7431                       # number of ReadReq MSHR misses
system.cpu.dcache.ReadReq_mshr_miss_latency::.cpu.data    330565500                       # number of ReadReq MSHR miss cycles
system.cpu.dcache.ReadReq_mshr_miss_latency::total    330565500                       # number of ReadReq MSHR miss cycles
system.cpu.dcache.ReadReq_mshr_miss_rate::.cpu.data     0.050746                       # mshr miss rate for ReadReq accesses
system.cpu.dcache.ReadReq_mshr_miss_rate::total     0.050746                       # mshr miss rate for ReadReq accesses
system.cpu.dcache.ReadReq_avg_mshr_miss_latency::.cpu.data 44484.658862                       # average ReadReq mshr miss latency
system.cpu.dcache.ReadReq_avg_mshr_miss_latency::total 44484.658862                       # average ReadReq mshr miss latency
system.cpu.dcache.WriteReq_hits::.cpu.data    197988487                       # number of WriteReq hits
system.cpu.dcache.WriteReq_hits::total      197988487                       # number of WriteReq hits
system.cpu.dcache.WriteReq_misses::.cpu.data     28262079                       # number of WriteReq misses
system.cpu.dcache.WriteReq_misses::total     28262079                       # number of WriteReq misses
system.cpu.dcache.WriteReq_miss_latency::.cpu.data 2161712374858                       # number of WriteReq miss cycles
system.cpu.dcache.WriteReq_miss_latency::total 2161712374858                       # number of WriteReq miss cycles
system.cpu.dcache.WriteReq_accesses::.cpu.data    226250566                       # number of WriteReq accesses(hits+misses)
system.cpu.dcache.WriteReq_accesses::total    226250566                       # number of WriteReq accesses(hits+misses)
system.cpu.dcache.WriteReq_miss_rate::.cpu.data     0.124915                       # miss rate for WriteReq accesses
system.cpu.dcache.WriteReq_miss_rate::total     0.124915                       # miss rate for WriteReq accesses
system.cpu.dcache.WriteReq_avg_miss_latency::.cpu.data 76488.087619                       # average WriteReq miss latency
system.cpu.dcache.WriteReq_avg_miss_latency::total 76488.087619                       # average WriteReq miss latency
system.cpu.dcache.WriteReq_mshr_hits::.cpu.data           11                       # number of WriteReq MSHR hits
system.cpu.dcache.WriteReq_mshr_hits::total           11                       # number of WriteReq MSHR hits
system.cpu.dcache.WriteReq_mshr_misses::.cpu.data     28262068                       # number of WriteReq MSHR misses
system.cpu.dcache.WriteReq_mshr_misses::total     28262068                       # number of WriteReq MSHR misses
system.cpu.dcache.WriteReq_mshr_miss_latency::.cpu.data 2133449861358                       # number of WriteReq MSHR miss cycles
system.cpu.dcache.WriteReq_mshr_miss_latency::total 2133449861358                       # number of WriteReq MSHR miss cycles
system.cpu.dcache.WriteReq_mshr_miss_rate::.cpu.data     0.124915                       # mshr miss rate for WriteReq accesses
system.cpu.dcache.WriteReq_mshr_miss_rate::total     0.124915                       # mshr miss rate for WriteReq accesses
system.cpu.dcache.WriteReq_avg_mshr_miss_latency::.cpu.data 75488.101626                       # average WriteReq mshr miss latency
system.cpu.dcache.WriteReq_avg_mshr_miss_latency::total 75488.101626                       # average WriteReq mshr miss latency
system.cpu.dcache.power_state.pwrStateResidencyTicks::UNDEFINED 1190212693500                       # Cumulative time (in ticks) in various power states
system.cpu.dcache.tags.tagsinuse           107.178560                       # Cycle average of tags in use
system.cpu.dcache.tags.total_refs           226379455                       # Total number of references to valid blocks.
system.cpu.dcache.tags.sampled_refs          28269498                       # Sample count of references to valid blocks.
system.cpu.dcache.tags.avg_refs              8.007905                       # Average number of references to valid blocks.
system.cpu.dcache.tags.warmup_cycle            192500                       # Cycle when the warmup percentage was hit.
system.cpu.dcache.tags.occ_blocks::.cpu.data   107.178560                       # Average occupied blocks per requestor
system.cpu.dcache.tags.occ_percent::.cpu.data     0.209333                       # Average percentage of cache occupancy
system.cpu.dcache.tags.occ_percent::total     0.209333                       # Average percentage of cache occupancy
system.cpu.dcache.tags.occ_task_id_blocks::1024          109                       # Occupied blocks per task id
system.cpu.dcache.tags.age_task_id_blocks_1024::0          109                       # Occupied blocks per task id
system.cpu.dcache.tags.occ_task_id_percent::1024     0.212891                       # Percentage of cache occupancy per task id
system.cpu.dcache.tags.tag_accesses        1839445514                       # Number of tag accesses
system.cpu.dcache.tags.data_accesses       1839445514                       # Number of data accesses
system.cpu.dcache.tags.power_state.pwrStateResidencyTicks::UNDEFINED 1190212693500                       # Cumulative time (in ticks) in various power states
system.cpu.decode.idleCycles                 39004365                       # Number of cycles decode is idle
system.cpu.decode.blockedCycles            4633774715                       # Number of cycles decode is blocked
system.cpu.decode.runCycles                  16164907                       # Number of cycles decode is running
system.cpu.decode.unblockCycles              71334663                       # Number of cycles decode is unblocking
system.cpu.decode.squashCycles                 457326                       # Number of cycles decode is squashing
system.cpu.decode.branchResolved             30050263                       # Number of times decode resolved a  branch
system.cpu.decode.branchMispred                  1973                       # Number of times decode detected a branch misprediction
system.cpu.decode.decodedInsts              422788021                       # Number of instructions handled by decode
system.cpu.decode.squashedInsts                 72713                       # Number of squashed instructions handled by decode
system.cpu.dtb.rdAccesses                      166785                       # TLB accesses on read requests
system.cpu.dtb.wrAccesses                   238263240                       # TLB accesses on write requests
system.cpu.dtb.rdMisses                          4762                       # TLB misses on read requests
system.cpu.dtb.wrMisses                      23926005                       # TLB misses on write requests
system.cpu.dtb.walker.power_state.pwrStateResidencyTicks::UNDEFINED 1190212693500                       # Cumulative time (in ticks) in various power states
system.cpu.dtb_walker_cache.blocked_cycles::no_mshrs            0                       # number of cycles access was blocked
system.cpu.dtb_walker_cache.blocked_cycles::no_targets            0                       # number of cycles access was blocked
system.cpu.dtb_walker_cache.blocked::no_mshrs            0                       # number of cycles access was blocked
system.cpu.dtb_walker_cache.blocked::no_targets            0                       # number of cycles access was blocked
system.cpu.dtb_walker_cache.avg_blocked_cycles::no_mshrs          nan                       # average number of cycles each access was blocked
system.cpu.dtb_walker_cache.avg_blocked_cycles::no_targets          nan                       # average number of cycles each access was blocked
system.cpu.dtb_walker_cache.replacements            0                       # number of replacements
system.cpu.dtb_walker_cache.expired                 0                       # dead blocks evicted
system.cpu.dtb_walker_cache.power_state.pwrStateResidencyTicks::UNDEFINED 1190212693500                       # Cumulative time (in ticks) in various power states
system.cpu.dtb_walker_cache.tags.tagsinuse            0                       # Cycle average of tags in use
system.cpu.dtb_walker_cache.tags.total_refs            0                       # Total number of references to valid blocks.
system.cpu.dtb_walker_cache.tags.sampled_refs            0                       # Sample count of references to valid blocks.
system.cpu.dtb_walker_cache.tags.avg_refs          nan                       # Average number of references to valid blocks.
system.cpu.dtb_walker_cache.tags.warmup_cycle            0                       # Cycle when the warmup percentage was hit.
system.cpu.dtb_walker_cache.tags.tag_accesses            0                       # Number of tag accesses
system.cpu.dtb_walker_cache.tags.data_accesses            0                       # Number of data accesses
system.cpu.dtb_walker_cache.tags.power_state.pwrStateResidencyTicks::UNDEFINED 1190212693500                       # Cumulative time (in ticks) in various power states
system.cpu.fetch.icacheStallCycles             398146                       # Number of cycles fetch is stalled on an Icache miss
system.cpu.fetch.insts                      221043100                       # Number of instructions fetch has processed
system.cpu.fetch.branches                    31635746                       # Number of branches that fetch encountered
system.cpu.fetch.predictedBranches           31348811                       # Number of branches that fetch has predicted taken
system.cpu.fetch.cycles                    2379872430                       # Number of cycles fetch has run and was not squashing or blocked
system.cpu.fetch.squashCycles                  459258                       # Number of cycles fetch has spent squashing
system.cpu.fetch.tlbCycles                        505                       # Number of cycles fetch has spent waiting for tlb
system.cpu.fetch.miscStallCycles                  133                       # Number of cycles fetch has spent waiting on interrupts,or bad addresses, or out of MSHRs
system.cpu.fetch.cacheLines                  94652857                       # Number of cache lines fetched
system.cpu.fetch.icacheSquashes                  1911                       # Number of outstanding Icache misses that were squashed
system.cpu.fetch.tlbSquashes                      226                       # Number of outstanding ITLB misses that were squashed
system.cpu.fetch.SMTDist::samples          2380367988                       # Number of Cycles each Thread Fetched
system.cpu.fetch.SMTDist::mean               0.499939                       # Number of Cycles each Thread Fetched
system.cpu.fetch.SMTDist::stdev              0.500081                       # Number of Cycles each Thread Fetched
system.cpu.fetch.SMTDist::underflows                0      0.00%      0.00% # Number of Cycles each Thread Fetched
system.cpu.fetch.SMTDist::-1                    96774      0.00%      0.00% # Number of Cycles each Thread Fetched
system.cpu.fetch.SMTDist::0                1190135638     50.00%     50.00% # Number of Cycles each Thread Fetched
system.cpu.fetch.SMTDist::1                1190135576     50.00%    100.00% # Number of Cycles each Thread Fetched
system.cpu.fetch.SMTDist::2                         0      0.00%    100.00% # Number of Cycles each Thread Fetched
system.cpu.fetch.SMTDist::overflows                 0      0.00%    100.00% # Number of Cycles each Thread Fetched
system.cpu.fetch.SMTDist::min_value                -1                       # Number of Cycles each Thread Fetched
system.cpu.fetch.SMTDist::max_value                 1                       # Number of Cycles each Thread Fetched
system.cpu.fetch.SMTDist::total            2380367988                       # Number of Cycles each Thread Fetched
system.cpu.fetch.nisnDist::samples         2380367988                       # Number of instructions fetched each cycle (Total)
system.cpu.fetch.nisnDist::mean              0.185402                       # Number of instructions fetched each cycle (Total)
system.cpu.fetch.nisnDist::stdev             0.871609                       # Number of instructions fetched each cycle (Total)
system.cpu.fetch.nisnDist::underflows               0      0.00%      0.00% # Number of instructions fetched each cycle (Total)
system.cpu.fetch.nisnDist::0               2259666477     94.93%     94.93% # Number of instructions fetched each cycle (Total)
system.cpu.fetch.nisnDist::1                 16479064      0.69%     95.62% # Number of instructions fetched each cycle (Total)
system.cpu.fetch.nisnDist::2                 10093594      0.42%     96.05% # Number of instructions fetched each cycle (Total)
system.cpu.fetch.nisnDist::3                 16626169      0.70%     96.74% # Number of instructions fetched each cycle (Total)
system.cpu.fetch.nisnDist::4                 52554377      2.21%     98.95% # Number of instructions fetched each cycle (Total)
system.cpu.fetch.nisnDist::5                  5525072      0.23%     99.18% # Number of instructions fetched each cycle (Total)
system.cpu.fetch.nisnDist::6                 19169403      0.81%     99.99% # Number of instructions fetched each cycle (Total)
system.cpu.fetch.nisnDist::7                   109032      0.00%     99.99% # Number of instructions fetched each cycle (Total)
system.cpu.fetch.nisnDist::8                   144800      0.01%    100.00% # Number of instructions fetched each cycle (Total)
system.cpu.fetch.nisnDist::overflows                0      0.00%    100.00% # Number of instructions fetched each cycle (Total)
system.cpu.fetch.nisnDist::min_value                0                       # Number of instructions fetched each cycle (Total)
system.cpu.fetch.nisnDist::max_value                8                       # Number of instructions fetched each cycle (Total)
system.cpu.fetch.nisnDist::total           2380367988                       # Number of instructions fetched each cycle (Total)
system.cpu.fetch.branchRate                  0.013290                       # Number of branch fetches per cycle
system.cpu.fetch.rate                        0.092859                       # Number of inst fetches per cycle
system.cpu.icache.demand_hits::.cpu.inst     94648926                       # number of demand (read+write) hits
system.cpu.icache.demand_hits::total         94648926                       # number of demand (read+write) hits
system.cpu.icache.overall_hits::.cpu.inst     94648926                       # number of overall hits
system.cpu.icache.overall_hits::total        94648926                       # number of overall hits
system.cpu.icache.demand_misses::.cpu.inst         3927                       # number of demand (read+write) misses
system.cpu.icache.demand_misses::total           3927                       # number of demand (read+write) misses
system.cpu.icache.overall_misses::.cpu.inst         3927                       # number of overall misses
system.cpu.icache.overall_misses::total          3927                       # number of overall misses
system.cpu.icache.demand_miss_latency::.cpu.inst    232658000                       # number of demand (read+write) miss cycles
system.cpu.icache.demand_miss_latency::total    232658000                       # number of demand (read+write) miss cycles
system.cpu.icache.overall_miss_latency::.cpu.inst    232658000                       # number of overall miss cycles
system.cpu.icache.overall_miss_latency::total    232658000                       # number of overall miss cycles
system.cpu.icache.demand_accesses::.cpu.inst     94652853                       # number of demand (read+write) accesses
system.cpu.icache.demand_accesses::total     94652853                       # number of demand (read+write) accesses
[...]
system.mem_ctrls1.dram.perBankWrBursts::4       441064                       # Per bank write bursts
system.mem_ctrls1.dram.perBankWrBursts::5       441058                       # Per bank write bursts
system.mem_ctrls1.dram.perBankWrBursts::6       441086                       # Per bank write bursts
system.mem_ctrls1.dram.perBankWrBursts::7       441100                       # Per bank write bursts
system.mem_ctrls1.dram.perBankWrBursts::8       441098                       # Per bank write bursts
system.mem_ctrls1.dram.perBankWrBursts::9       441097                       # Per bank write bursts
system.mem_ctrls1.dram.perBankWrBursts::10       441121                       # Per bank write bursts
system.mem_ctrls1.dram.perBankWrBursts::11       441126                       # Per bank write bursts
system.mem_ctrls1.dram.perBankWrBursts::12       441064                       # Per bank write bursts
system.mem_ctrls1.dram.perBankWrBursts::13       440999                       # Per bank write bursts
system.mem_ctrls1.dram.perBankWrBursts::14       441005                       # Per bank write bursts
system.mem_ctrls1.dram.perBankWrBursts::15       441018                       # Per bank write bursts
system.mem_ctrls1.dram.perBankWrBursts::16       441008                       # Per bank write bursts
system.mem_ctrls1.dram.perBankWrBursts::17       440967                       # Per bank write bursts
system.mem_ctrls1.dram.perBankWrBursts::18       440991                       # Per bank write bursts
system.mem_ctrls1.dram.perBankWrBursts::19       440991                       # Per bank write bursts
system.mem_ctrls1.dram.perBankWrBursts::20       441022                       # Per bank write bursts
system.mem_ctrls1.dram.perBankWrBursts::21       441002                       # Per bank write bursts
system.mem_ctrls1.dram.perBankWrBursts::22       441016                       # Per bank write bursts
system.mem_ctrls1.dram.perBankWrBursts::23       441076                       # Per bank write bursts
system.mem_ctrls1.dram.perBankWrBursts::24       441101                       # Per bank write bursts
system.mem_ctrls1.dram.perBankWrBursts::25       441015                       # Per bank write bursts
system.mem_ctrls1.dram.perBankWrBursts::26       440991                       # Per bank write bursts
system.mem_ctrls1.dram.perBankWrBursts::27       441011                       # Per bank write bursts
system.mem_ctrls1.dram.perBankWrBursts::28       440984                       # Per bank write bursts
system.mem_ctrls1.dram.perBankWrBursts::29       440977                       # Per bank write bursts
system.mem_ctrls1.dram.perBankWrBursts::30       440919                       # Per bank write bursts
system.mem_ctrls1.dram.perBankWrBursts::31       441000                       # Per bank write bursts
system.mem_ctrls1.dram.totQLat           185173072870                       # Total ticks spent queuing
system.mem_ctrls1.dram.totBusLat          47094884508                       # Total ticks spent in databus transfers
system.mem_ctrls1.dram.totMemAccLat      432407082418                       # Total ticks spent from burst creation until serviced by the DRAM
system.mem_ctrls1.dram.avgQLat               13101.14                       # Average queueing delay per DRAM burst
system.mem_ctrls1.dram.avgBusLat              3332.00                       # Average bus latency per DRAM burst
system.mem_ctrls1.dram.avgMemAccLat          30593.14                       # Average memory access latency per DRAM burst
system.mem_ctrls1.dram.readRowHits           12596899                       # Number of row buffer hits during reads
system.mem_ctrls1.dram.writeRowHits           9116535                       # Number of row buffer hits during writes
system.mem_ctrls1.dram.readRowHitRate           89.12                       # Row buffer hit rate for reads
system.mem_ctrls1.dram.writeRowHitRate          64.60                       # Row buffer hit rate for writes
system.mem_ctrls1.dram.bytesPerActivate::samples      6533881                       # Bytes accessed per row activation
system.mem_ctrls1.dram.bytesPerActivate::mean   276.685169                       # Bytes accessed per row activation
system.mem_ctrls1.dram.bytesPerActivate::gmean   176.286331                       # Bytes accessed per row activation
system.mem_ctrls1.dram.bytesPerActivate::stdev   289.911260                       # Bytes accessed per row activation
system.mem_ctrls1.dram.bytesPerActivate::0-127      2047340     31.33%     31.33% # Bytes accessed per row activation
system.mem_ctrls1.dram.bytesPerActivate::128-255      2117415     32.41%     63.74% # Bytes accessed per row activation
system.mem_ctrls1.dram.bytesPerActivate::256-383       783756     12.00%     75.74% # Bytes accessed per row activation
system.mem_ctrls1.dram.bytesPerActivate::384-511       420263      6.43%     82.17% # Bytes accessed per row activation
system.mem_ctrls1.dram.bytesPerActivate::512-639       276890      4.24%     86.41% # Bytes accessed per row activation
system.mem_ctrls1.dram.bytesPerActivate::640-767       151282      2.32%     88.72% # Bytes accessed per row activation
system.mem_ctrls1.dram.bytesPerActivate::768-895       103042      1.58%     90.30% # Bytes accessed per row activation
system.mem_ctrls1.dram.bytesPerActivate::896-1023        81100      1.24%     91.54% # Bytes accessed per row activation
system.mem_ctrls1.dram.bytesPerActivate::1024-1151       552793      8.46%    100.00% # Bytes accessed per row activation
system.mem_ctrls1.dram.bytesPerActivate::total      6533881                       # Bytes accessed per row activation
system.mem_ctrls1.dram.bytesRead            904583616                       # Total number of bytes read from DRAM
system.mem_ctrls1.dram.bytesWritten         903244736                       # Total number of bytes written to DRAM
system.mem_ctrls1.dram.avgRdBW             760.018458                       # Average DRAM read bandwidth in MiBytes/s
system.mem_ctrls1.dram.avgWrBW             758.893550                       # Average DRAM write bandwidth in MiBytes/s
system.mem_ctrls1.dram.peakBW                19207.00                       # Theoretical peak bandwidth in MiByte/s
system.mem_ctrls1.dram.busUtil                   7.91                       # Data bus utilization in percentage
system.mem_ctrls1.dram.busUtilRead               3.96                       # Data bus utilization in percentage for reads
system.mem_ctrls1.dram.busUtilWrite              3.95                       # Data bus utilization in percentage for writes
system.mem_ctrls1.dram.pageHitRate              76.87                       # Row buffer hit rate, read and write combined
system.mem_ctrls1.dram.power_state.pwrStateResidencyTicks::UNDEFINED 1190212693500                       # Cumulative time (in ticks) in various power states
system.mem_ctrls1.dram.rank0.actEnergy   10191682335.743336                       # Energy for activate commands per rank (pJ)
system.mem_ctrls1.dram.rank0.preEnergy   13549702710.099205                       # Energy for precharge commands per rank (pJ)
system.mem_ctrls1.dram.rank0.readEnergy  29731715146.959194                       # Energy for read commands per rank (pJ)
system.mem_ctrls1.dram.rank0.writeEnergy 26524187359.491730                       # Energy for write commands per rank (pJ)
system.mem_ctrls1.dram.rank0.refreshEnergy 211779907114.468201                       # Energy for refresh commands per rank (pJ)
system.mem_ctrls1.dram.rank0.actBackEnergy 833244421243.019409                       # Energy for active background per rank (pJ)
system.mem_ctrls1.dram.rank0.preBackEnergy 136737844735.279846                       # Energy for precharge background per rank (pJ)
system.mem_ctrls1.dram.rank0.actPowerDownEnergy            0                       # Energy for active power-down per rank (pJ)
system.mem_ctrls1.dram.rank0.prePowerDownEnergy            0                       # Energy for precharge power-down per rank (pJ)
system.mem_ctrls1.dram.rank0.selfRefreshEnergy            0                       # Energy for self refresh per rank (pJ)
system.mem_ctrls1.dram.rank0.totalEnergy 1261759460645.448975                       # Total energy per rank (pJ)
system.mem_ctrls1.dram.rank0.averagePower  1060.112590                       # Core power per rank (mW)
system.mem_ctrls1.dram.rank0.totalIdleTime            0                       # Total Idle time Per DRAM Rank
system.mem_ctrls1.dram.rank0.pwrStateTime::IDLE 197895322125                       # Time in different power states
system.mem_ctrls1.dram.rank0.pwrStateTime::REF  53503800000                       # Time in different power states
system.mem_ctrls1.dram.rank0.pwrStateTime::SREF            0                       # Time in different power states
system.mem_ctrls1.dram.rank0.pwrStateTime::PRE_PDN            0                       # Time in different power states
system.mem_ctrls1.dram.rank0.pwrStateTime::ACT 938813571375                       # Time in different power states
system.mem_ctrls1.dram.rank0.pwrStateTime::ACT_PDN            0                       # Time in different power states
system.mem_ctrls1.dram.rank1.actEnergy   10185881457.023397                       # Energy for activate commands per rank (pJ)
system.mem_ctrls1.dram.rank1.preEnergy   13541994662.552044                       # Energy for precharge commands per rank (pJ)
system.mem_ctrls1.dram.rank1.readEnergy  29720867055.932228                       # Energy for read commands per rank (pJ)
system.mem_ctrls1.dram.rank1.writeEnergy 26520214629.219646                       # Energy for write commands per rank (pJ)
system.mem_ctrls1.dram.rank1.refreshEnergy 211779907114.468201                       # Energy for refresh commands per rank (pJ)
system.mem_ctrls1.dram.rank1.actBackEnergy 833038536517.868164                       # Energy for active background per rank (pJ)
system.mem_ctrls1.dram.rank1.preBackEnergy 136896038648.394119                       # Energy for precharge background per rank (pJ)
system.mem_ctrls1.dram.rank1.actPowerDownEnergy            0                       # Energy for active power-down per rank (pJ)
system.mem_ctrls1.dram.rank1.prePowerDownEnergy            0                       # Energy for precharge power-down per rank (pJ)
system.mem_ctrls1.dram.rank1.selfRefreshEnergy            0                       # Energy for self refresh per rank (pJ)
system.mem_ctrls1.dram.rank1.totalEnergy 1261683440085.820312                       # Total energy per rank (pJ)
system.mem_ctrls1.dram.rank1.averagePower  1060.048718                       # Core power per rank (mW)
system.mem_ctrls1.dram.rank1.totalIdleTime            0                       # Total Idle time Per DRAM Rank
system.mem_ctrls1.dram.rank1.pwrStateTime::IDLE 198144083668                       # Time in different power states
system.mem_ctrls1.dram.rank1.pwrStateTime::REF  53503800000                       # Time in different power states
system.mem_ctrls1.dram.rank1.pwrStateTime::SREF            0                       # Time in different power states
system.mem_ctrls1.dram.rank1.pwrStateTime::PRE_PDN            0                       # Time in different power states
system.mem_ctrls1.dram.rank1.pwrStateTime::ACT 938564809832                       # Time in different power states
system.mem_ctrls1.dram.rank1.pwrStateTime::ACT_PDN            0                       # Time in different power states
system.mem_ctrls1.power_state.pwrStateResidencyTicks::UNDEFINED 1190212693500                       # Cumulative time (in ticks) in various power states
system.membus.trans_dist::ReadResp               6863                       # Transaction distribution
system.membus.trans_dist::WritebackDirty     28226497                       # Transaction distribution
system.membus.trans_dist::CleanEvict             2507                       # Transaction distribution
system.membus.trans_dist::ReadExReq          28261396                       # Transaction distribution
system.membus.trans_dist::ReadExResp         28261396                       # Transaction distribution
system.membus.trans_dist::ReadSharedReq          6863                       # Transaction distribution
system.membus.pkt_count_system.l2.mem_side_port::system.mem_ctrls0.port     42382781                       # Packet count per connected requestor and responder (bytes)
system.membus.pkt_count_system.l2.mem_side_port::system.mem_ctrls1.port     42382741                       # Packet count per connected requestor and responder (bytes)
system.membus.pkt_count_system.l2.mem_side_port::total     84765522                       # Packet count per connected requestor and responder (bytes)
system.membus.pkt_count::total               84765522                       # Packet count per connected requestor and responder (bytes)
system.membus.pkt_size_system.l2.mem_side_port::system.mem_ctrls0.port   1807832640                       # Cumulative packet size per connected requestor and responder (bytes)
system.membus.pkt_size_system.l2.mem_side_port::system.mem_ctrls1.port   1807831744                       # Cumulative packet size per connected requestor and responder (bytes)
system.membus.pkt_size_system.l2.mem_side_port::total   3615664384                       # Cumulative packet size per connected requestor and responder (bytes)
system.membus.pkt_size::total              3615664384                       # Cumulative packet size per connected requestor and responder (bytes)
system.membus.snoops                                0                       # Total snoops (count)
system.membus.snoopTraffic                          0                       # Total snoop traffic (bytes)
system.membus.snoop_fanout::samples          28268259                       # Request fanout histogram
system.membus.snoop_fanout::mean                    0                       # Request fanout histogram
system.membus.snoop_fanout::stdev                   0                       # Request fanout histogram
system.membus.snoop_fanout::underflows              0      0.00%      0.00% # Request fanout histogram
system.membus.snoop_fanout::0                28268259    100.00%    100.00% # Request fanout histogram
system.membus.snoop_fanout::1                       0      0.00%    100.00% # Request fanout histogram
system.membus.snoop_fanout::overflows               0      0.00%    100.00% # Request fanout histogram
system.membus.snoop_fanout::min_value               0                       # Request fanout histogram
system.membus.snoop_fanout::max_value               0                       # Request fanout histogram
system.membus.snoop_fanout::total            28268259                       # Request fanout histogram
system.membus.power_state.pwrStateResidencyTicks::UNDEFINED 1190212693500                       # Cumulative time (in ticks) in various power states
system.membus.reqLayer4.occupancy         87555465033                       # Layer occupancy (ticks)
system.membus.reqLayer4.utilization               7.4                       # Layer utilization (%)
system.membus.reqLayer5.occupancy         87522550404                       # Layer occupancy (ticks)
system.membus.reqLayer5.utilization               7.4                       # Layer utilization (%)
system.membus.respLayer1.occupancy       149698791398                       # Layer occupancy (ticks)
system.membus.respLayer1.utilization             12.6                       # Layer utilization (%)
system.tol2bus.trans_dist::ReadResp             10401                       # Transaction distribution
system.tol2bus.trans_dist::WritebackDirty     56490285                       # Transaction distribution
system.tol2bus.trans_dist::WritebackClean         8062                       # Transaction distribution
system.tol2bus.trans_dist::CleanEvict            2758                       # Transaction distribution
system.tol2bus.trans_dist::HardPFReq               49                       # Transaction distribution
system.tol2bus.trans_dist::ReadExReq         28262070                       # Transaction distribution
system.tol2bus.trans_dist::ReadExResp        28262069                       # Transaction distribution
system.tol2bus.trans_dist::ReadCleanReq          2972                       # Transaction distribution
system.tol2bus.trans_dist::ReadSharedReq         7429                       # Transaction distribution
system.tol2bus.pkt_count_system.cpu.icache.mem_side_port::system.l2.cpu_side_port         8403                       # Packet count per connected requestor and responder (bytes)
system.tol2bus.pkt_count_system.cpu.dcache.mem_side_port::system.l2.cpu_side_port     84808386                       # Packet count per connected requestor and responder (bytes)
system.tol2bus.pkt_count::total              84816789                       # Packet count per connected requestor and responder (bytes)
system.tol2bus.pkt_size_system.cpu.icache.mem_side_port::system.l2.cpu_side_port       347584                       # Cumulative packet size per connected requestor and responder (bytes)
system.tol2bus.pkt_size_system.cpu.dcache.mem_side_port::system.l2.cpu_side_port   3618488768                       # Cumulative packet size per connected requestor and responder (bytes)
system.tol2bus.pkt_size::total             3618836352                       # Cumulative packet size per connected requestor and responder (bytes)
system.tol2bus.snoops                        28229306                       # Total snoops (count)
system.tol2bus.snoopTraffic                1806495936                       # Total snoop traffic (bytes)
system.tol2bus.snoop_fanout::samples         56501776                       # Request fanout histogram
system.tol2bus.snoop_fanout::mean            0.000005                       # Request fanout histogram
system.tol2bus.snoop_fanout::stdev           0.002182                       # Request fanout histogram
system.tol2bus.snoop_fanout::underflows             0      0.00%      0.00% # Request fanout histogram
system.tol2bus.snoop_fanout::0               56501507    100.00%    100.00% # Request fanout histogram
system.tol2bus.snoop_fanout::1                    269      0.00%    100.00% # Request fanout histogram
system.tol2bus.snoop_fanout::2                      0      0.00%    100.00% # Request fanout histogram
system.tol2bus.snoop_fanout::3                      0      0.00%    100.00% # Request fanout histogram
system.tol2bus.snoop_fanout::4                      0      0.00%    100.00% # Request fanout histogram
system.tol2bus.snoop_fanout::overflows              0      0.00%    100.00% # Request fanout histogram
system.tol2bus.snoop_fanout::min_value              0                       # Request fanout histogram
system.tol2bus.snoop_fanout::max_value              1                       # Request fanout histogram
system.tol2bus.snoop_fanout::total           56501776                       # Request fanout histogram
system.tol2bus.power_state.pwrStateResidencyTicks::UNDEFINED 1190212693500                       # Cumulative time (in ticks) in various power states
system.tol2bus.reqLayer0.occupancy        56544009000                       # Layer occupancy (ticks)
system.tol2bus.reqLayer0.utilization              4.8                       # Layer utilization (%)
system.tol2bus.respLayer0.occupancy           4468978                       # Layer occupancy (ticks)
system.tol2bus.respLayer0.utilization             0.0                       # Layer utilization (%)
system.tol2bus.respLayer1.occupancy       42404247998                       # Layer occupancy (ticks)
system.tol2bus.respLayer1.utilization             3.6                       # Layer utilization (%)
system.voltage_domain.voltage                       1                       # Voltage in Volts

---------- End Simulation Statistics   ----------
