
---------- Begin Simulation Statistics ----------
final_tick                                64223529500                       # Number of ticks from beginning of simulation (restored from checkpoints and never reset)
host_mem_usage                               67465344                       # Number of bytes of host memory used
host_seconds                                  1736.54                       # Real time elapsed on the host
host_tick_rate                               36983683                       # Simulator tick rate (ticks/s)
sim_freq                                 1000000000000                       # Frequency of simulated ticks
sim_seconds                                  0.064224                       # Number of seconds simulated
sim_ticks                                 64223529500                       # Number of ticks simulated
system.cpu.cc_regfile_reads                 175301306                       # number of cc regfile reads
system.cpu.cc_regfile_writes                171426868                       # number of cc regfile writes
system.cpu.committedInsts::0                100162318                       # Number of Instructions Simulated
system.cpu.committedInsts::1                100000000                       # Number of Instructions Simulated
system.cpu.committedInsts::total            200162318                       # Number of Instructions Simulated
system.cpu.committedOps::0                  155480764                       # Number of Ops (including micro ops) Simulated
system.cpu.committedOps::1                  155229019                       # Number of Ops (including micro ops) Simulated
system.cpu.committedOps::total              310709783                       # Number of Ops (including micro ops) Simulated
system.cpu.cpi::0                            1.282389                       # CPI: Cycles Per Instruction
system.cpu.cpi::1                            1.284471                       # CPI: Cycles Per Instruction
system.cpu.cpi_total                         0.641714                       # CPI: Total CPI of All Threads
system.cpu.fp_regfile_reads                  14924553                       # number of floating regfile reads
system.cpu.fp_regfile_writes                 11450172                       # number of floating regfile writes
system.cpu.idleCycles                          102345                       # Total number of cycles that the CPU has spent unscheduled due to idling
system.cpu.iew.branchMispredicts              1332661                       # Number of branch mispredicts detected at execute
system.cpu.iew.exec_branches::0              12078839                       # Number of branches executed
system.cpu.iew.exec_branches::1              12066541                       # Number of branches executed
system.cpu.iew.exec_branches::total          24145380                       # Number of branches executed
system.cpu.iew.exec_nop::0                          0                       # number of nop insts executed
system.cpu.iew.exec_nop::1                          0                       # number of nop insts executed
system.cpu.iew.exec_nop::total                      0                       # number of nop insts executed
system.cpu.iew.exec_rate                     2.660366                       # Inst execution rate
system.cpu.iew.exec_refs::0                  44910367                       # number of memory reference insts executed
system.cpu.iew.exec_refs::1                  44846183                       # number of memory reference insts executed
system.cpu.iew.exec_refs::total              89756550                       # number of memory reference insts executed
system.cpu.iew.exec_stores::0                13769411                       # Number of stores executed
system.cpu.iew.exec_stores::1                13748872                       # Number of stores executed
system.cpu.iew.exec_stores::total            27518283                       # Number of stores executed
system.cpu.iew.exec_swp::0                          0                       # number of swp insts executed
system.cpu.iew.exec_swp::1                          0                       # number of swp insts executed
system.cpu.iew.exec_swp::total                      0                       # number of swp insts executed
system.cpu.iew.iewBlockCycles                10276920                       # Number of cycles IEW is blocking
system.cpu.iew.iewDispLoadInsts              67784312                       # Number of dispatched load instructions
system.cpu.iew.iewDispNonSpecInsts               1835                       # Number of dispatched non-speculative instructions
system.cpu.iew.iewDispSquashedInsts                 0                       # Number of squashed instructions skipped by dispatch
system.cpu.iew.iewDispStoreInsts             28756350                       # Number of dispatched store instructions
system.cpu.iew.iewDispatchedInsts           367276321                       # Number of instructions dispatched to IQ
system.cpu.iew.iewExecLoadInsts::0           31140956                       # Number of load instructions executed
system.cpu.iew.iewExecLoadInsts::1           31097311                       # Number of load instructions executed
system.cpu.iew.iewExecLoadInsts::total       62238267                       # Number of load instructions executed
system.cpu.iew.iewExecSquashedInsts           2427159                       # Number of squashed instructions skipped in execute
system.cpu.iew.iewExecutedInsts             341716155                       # Number of executed instructions
system.cpu.iew.iewIQFullEvents                  57200                       # Number of times the IQ has become full, causing a stall
system.cpu.iew.iewIdleCycles                        0                       # Number of cycles IEW is idle
system.cpu.iew.iewLSQFullEvents                370665                       # Number of times the LSQ has become full, causing a stall
system.cpu.iew.iewSquashCycles                1244585                       # Number of cycles IEW is squashing
system.cpu.iew.iewUnblockCycles                478160                       # Number of cycles IEW is unblocking
system.cpu.iew.memOrderViolationEvents           1685                       # Number of memory order violations
system.cpu.iew.predictedNotTakenIncorrect       616222                       # Number of branches that were predicted not taken incorrectly
system.cpu.iew.predictedTakenIncorrect         716439                       # Number of branches that were predicted taken incorrectly
system.cpu.iew.wb_consumers::0              232388233                       # num instructions consuming a value
system.cpu.iew.wb_consumers::1              231793250                       # num instructions consuming a value
system.cpu.iew.wb_consumers::total          464181483                       # num instructions consuming a value
system.cpu.iew.wb_count::0                  170821946                       # cumulative count of insts written-back
system.cpu.iew.wb_count::1                  170579832                       # cumulative count of insts written-back
system.cpu.iew.wb_count::total              341401778                       # cumulative count of insts written-back
system.cpu.iew.wb_fanout::0                  0.555299                       # average fanout of values written-back
system.cpu.iew.wb_fanout::1                  0.555626                       # average fanout of values written-back
system.cpu.iew.wb_fanout::total              0.555462                       # average fanout of values written-back
system.cpu.iew.wb_producers::0              129044893                       # num instructions producing a value
system.cpu.iew.wb_producers::1              128790287                       # num instructions producing a value
system.cpu.iew.wb_producers::total          257835180                       # num instructions producing a value
system.cpu.iew.wb_rate::0                    1.329902                       # insts written-back per cycle
system.cpu.iew.wb_rate::1                    1.328017                       # insts written-back per cycle
system.cpu.iew.wb_rate::total                2.657918                       # insts written-back per cycle
system.cpu.iew.wb_sent::0                   170847144                       # cumulative count of insts sent to commit
system.cpu.iew.wb_sent::1                   170604622                       # cumulative count of insts sent to commit
system.cpu.iew.wb_sent::total               341451766                       # cumulative count of insts sent to commit
system.cpu.int_regfile_reads                584288943                       # number of integer regfile reads
system.cpu.int_regfile_writes               273878684                       # number of integer regfile writes
system.cpu.ipc::0                            0.779795                       # IPC: Instructions Per Cycle
system.cpu.ipc::1                            0.778531                       # IPC: Instructions Per Cycle
system.cpu.ipc_total                         1.558325                       # IPC: Total IPC of All Threads
system.cpu.iq.FU_type_0::No_OpClass           2351454      1.36%      1.36% # Type of FU issued
system.cpu.iq.FU_type_0::IntAlu             119243180     69.00%     70.36% # Type of FU issued
system.cpu.iq.FU_type_0::IntMult                   51      0.00%     70.36% # Type of FU issued
system.cpu.iq.FU_type_0::IntDiv                 40803      0.02%     70.39% # Type of FU issued
system.cpu.iq.FU_type_0::FloatAdd             1682419      0.97%     71.36% # Type of FU issued
system.cpu.iq.FU_type_0::FloatCmp                   0      0.00%     71.36% # Type of FU issued
system.cpu.iq.FU_type_0::FloatCvt                1331      0.00%     71.36% # Type of FU issued
system.cpu.iq.FU_type_0::FloatMult                  0      0.00%     71.36% # Type of FU issued
system.cpu.iq.FU_type_0::FloatMultAcc               0      0.00%     71.36% # Type of FU issued
system.cpu.iq.FU_type_0::FloatDiv                   0      0.00%     71.36% # Type of FU issued
system.cpu.iq.FU_type_0::FloatMisc                  0      0.00%     71.36% # Type of FU issued
system.cpu.iq.FU_type_0::FloatSqrt                  0      0.00%     71.36% # Type of FU issued
system.cpu.iq.FU_type_0::SimdAdd                 8665      0.01%     71.37% # Type of FU issued
system.cpu.iq.FU_type_0::SimdAddAcc                 0      0.00%     71.37% # Type of FU issued
system.cpu.iq.FU_type_0::SimdAlu               104321      0.06%     71.43% # Type of FU issued
system.cpu.iq.FU_type_0::SimdCmp                    6      0.00%     71.43% # Type of FU issued
system.cpu.iq.FU_type_0::SimdCvt                18849      0.01%     71.44% # Type of FU issued
system.cpu.iq.FU_type_0::SimdMisc             3362317      1.95%     73.38% # Type of FU issued
system.cpu.iq.FU_type_0::SimdMult                   0      0.00%     73.38% # Type of FU issued
system.cpu.iq.FU_type_0::SimdMultAcc                0      0.00%     73.38% # Type of FU issued
system.cpu.iq.FU_type_0::SimdShift               2358      0.00%     73.38% # Type of FU issued
system.cpu.iq.FU_type_0::SimdShiftAcc               0      0.00%     73.38% # Type of FU issued
system.cpu.iq.FU_type_0::SimdDiv                    0      0.00%     73.38% # Type of FU issued
system.cpu.iq.FU_type_0::SimdSqrt                   0      0.00%     73.38% # Type of FU issued
system.cpu.iq.FU_type_0::SimdFloatAdd               0      0.00%     73.38% # Type of FU issued
system.cpu.iq.FU_type_0::SimdFloatAlu               0      0.00%     73.38% # Type of FU issued
system.cpu.iq.FU_type_0::SimdFloatCmp               0      0.00%     73.38% # Type of FU issued
system.cpu.iq.FU_type_0::SimdFloatCvt           40827      0.02%     73.41% # Type of FU issued
system.cpu.iq.FU_type_0::SimdFloatDiv               0      0.00%     73.41% # Type of FU issued
system.cpu.iq.FU_type_0::SimdFloatMisc              0      0.00%     73.41% # Type of FU issued
system.cpu.iq.FU_type_0::SimdFloatMult          22028      0.01%     73.42% # Type of FU issued
system.cpu.iq.FU_type_0::SimdFloatMultAcc            0      0.00%     73.42% # Type of FU issued
system.cpu.iq.FU_type_0::SimdFloatSqrt              0      0.00%     73.42% # Type of FU issued
system.cpu.iq.FU_type_0::SimdReduceAdd              0      0.00%     73.42% # Type of FU issued
system.cpu.iq.FU_type_0::SimdReduceAlu              0      0.00%     73.42% # Type of FU issued
system.cpu.iq.FU_type_0::SimdReduceCmp              0      0.00%     73.42% # Type of FU issued
system.cpu.iq.FU_type_0::SimdFloatReduceAdd            0      0.00%     73.42% # Type of FU issued
system.cpu.iq.FU_type_0::SimdFloatReduceCmp            0      0.00%     73.42% # Type of FU issued
system.cpu.iq.FU_type_0::SimdAes                    0      0.00%     73.42% # Type of FU issued
system.cpu.iq.FU_type_0::SimdAesMix                 0      0.00%     73.42% # Type of FU issued
system.cpu.iq.FU_type_0::SimdSha1Hash               0      0.00%     73.42% # Type of FU issued
system.cpu.iq.FU_type_0::SimdSha1Hash2              0      0.00%     73.42% # Type of FU issued
system.cpu.iq.FU_type_0::SimdSha256Hash             0      0.00%     73.42% # Type of FU issued
system.cpu.iq.FU_type_0::SimdSha256Hash2            0      0.00%     73.42% # Type of FU issued
system.cpu.iq.FU_type_0::SimdShaSigma2              0      0.00%     73.42% # Type of FU issued
system.cpu.iq.FU_type_0::SimdShaSigma3              0      0.00%     73.42% # Type of FU issued
system.cpu.iq.FU_type_0::SimdPredAlu                0      0.00%     73.42% # Type of FU issued
system.cpu.iq.FU_type_0::MemRead             31904007     18.46%     91.88% # Type of FU issued
system.cpu.iq.FU_type_0::MemWrite            12756901      7.38%     99.26% # Type of FU issued
system.cpu.iq.FU_type_0::FloatMemRead          115673      0.07%     99.33% # Type of FU issued
system.cpu.iq.FU_type_0::FloatMemWrite        1157459      0.67%    100.00% # Type of FU issued
system.cpu.iq.FU_type_0::IprAccess                  0      0.00%    100.00% # Type of FU issued
system.cpu.iq.FU_type_0::InstPrefetch               0      0.00%    100.00% # Type of FU issued
system.cpu.iq.FU_type_0::total              172812649                       # Type of FU issued
system.cpu.iq.FU_type_1::No_OpClass           2346314      1.36%      1.36% # Type of FU issued
system.cpu.iq.FU_type_1::IntAlu             119069368     68.99%     70.35% # Type of FU issued
system.cpu.iq.FU_type_1::IntMult                   59      0.00%     70.35% # Type of FU issued
system.cpu.iq.FU_type_1::IntDiv                 40815      0.02%     70.38% # Type of FU issued
system.cpu.iq.FU_type_1::FloatAdd             1679621      0.97%     71.35% # Type of FU issued
system.cpu.iq.FU_type_1::FloatCmp                   0      0.00%     71.35% # Type of FU issued
system.cpu.iq.FU_type_1::FloatCvt                1346      0.00%     71.35% # Type of FU issued
system.cpu.iq.FU_type_1::FloatMult                  0      0.00%     71.35% # Type of FU issued
system.cpu.iq.FU_type_1::FloatMultAcc               0      0.00%     71.35% # Type of FU issued
system.cpu.iq.FU_type_1::FloatDiv                   0      0.00%     71.35% # Type of FU issued
system.cpu.iq.FU_type_1::FloatMisc                  0      0.00%     71.35% # Type of FU issued
system.cpu.iq.FU_type_1::FloatSqrt                  0      0.00%     71.35% # Type of FU issued
system.cpu.iq.FU_type_1::SimdAdd                 8675      0.01%     71.36% # Type of FU issued
system.cpu.iq.FU_type_1::SimdAddAcc                 0      0.00%     71.36% # Type of FU issued
system.cpu.iq.FU_type_1::SimdAlu               104423      0.06%     71.42% # Type of FU issued
system.cpu.iq.FU_type_1::SimdCmp                    6      0.00%     71.42% # Type of FU issued
system.cpu.iq.FU_type_1::SimdCvt                18800      0.01%     71.43% # Type of FU issued
system.cpu.iq.FU_type_1::SimdMisc             3356750      1.95%     73.37% # Type of FU issued
system.cpu.iq.FU_type_1::SimdMult                   0      0.00%     73.37% # Type of FU issued
system.cpu.iq.FU_type_1::SimdMultAcc                0      0.00%     73.37% # Type of FU issued
system.cpu.iq.FU_type_1::SimdShift               2347      0.00%     73.38% # Type of FU issued
system.cpu.iq.FU_type_1::SimdShiftAcc               0      0.00%     73.38% # Type of FU issued
system.cpu.iq.FU_type_1::SimdDiv                    0      0.00%     73.38% # Type of FU issued
system.cpu.iq.FU_type_1::SimdSqrt                   0      0.00%     73.38% # Type of FU issued
system.cpu.iq.FU_type_1::SimdFloatAdd               0      0.00%     73.38% # Type of FU issued
system.cpu.iq.FU_type_1::SimdFloatAlu               0      0.00%     73.38% # Type of FU issued
system.cpu.iq.FU_type_1::SimdFloatCmp               0      0.00%     73.38% # Type of FU issued
system.cpu.iq.FU_type_1::SimdFloatCvt           40603      0.02%     73.40% # Type of FU issued
system.cpu.iq.FU_type_1::SimdFloatDiv               0      0.00%     73.40% # Type of FU issued
system.cpu.iq.FU_type_1::SimdFloatMisc              0      0.00%     73.40% # Type of FU issued
system.cpu.iq.FU_type_1::SimdFloatMult          21954      0.01%     73.41% # Type of FU issued
system.cpu.iq.FU_type_1::SimdFloatMultAcc            0      0.00%     73.41% # Type of FU issued
system.cpu.iq.FU_type_1::SimdFloatSqrt              0      0.00%     73.41% # Type of FU issued
system.cpu.iq.FU_type_1::SimdReduceAdd              0      0.00%     73.41% # Type of FU issued
system.cpu.iq.FU_type_1::SimdReduceAlu              0      0.00%     73.41% # Type of FU issued
system.cpu.iq.FU_type_1::SimdReduceCmp              0      0.00%     73.41% # Type of FU issued
system.cpu.iq.FU_type_1::SimdFloatReduceAdd            0      0.00%     73.41% # Type of FU issued
system.cpu.iq.FU_type_1::SimdFloatReduceCmp            0      0.00%     73.41% # Type of FU issued
system.cpu.iq.FU_type_1::SimdAes                    0      0.00%     73.41% # Type of FU issued
system.cpu.iq.FU_type_1::SimdAesMix                 0      0.00%     73.41% # Type of FU issued
system.cpu.iq.FU_type_1::SimdSha1Hash               0      0.00%     73.41% # Type of FU issued
system.cpu.iq.FU_type_1::SimdSha1Hash2              0      0.00%     73.41% # Type of FU issued
system.cpu.iq.FU_type_1::SimdSha256Hash             0      0.00%     73.41% # Type of FU issued
system.cpu.iq.FU_type_1::SimdSha256Hash2            0      0.00%     73.41% # Type of FU issued
system.cpu.iq.FU_type_1::SimdShaSigma2              0      0.00%     73.41% # Type of FU issued
system.cpu.iq.FU_type_1::SimdShaSigma3              0      0.00%     73.41% # Type of FU issued
system.cpu.iq.FU_type_1::SimdPredAlu                0      0.00%     73.41% # Type of FU issued
system.cpu.iq.FU_type_1::MemRead             31874727     18.47%     91.88% # Type of FU issued
system.cpu.iq.FU_type_1::MemWrite            12738681      7.38%     99.26% # Type of FU issued
system.cpu.iq.FU_type_1::FloatMemRead          116490      0.07%     99.33% # Type of FU issued
system.cpu.iq.FU_type_1::FloatMemWrite        1156083      0.67%    100.00% # Type of FU issued
system.cpu.iq.FU_type_1::IprAccess                  0      0.00%    100.00% # Type of FU issued
system.cpu.iq.FU_type_1::InstPrefetch               0      0.00%    100.00% # Type of FU issued
system.cpu.iq.FU_type_1::total              172577062                       # Type of FU issued
system.cpu.iq.FU_type::total                345389711      0.00%      0.00% # Type of FU issued
system.cpu.iq.fp_alu_accesses                27514518                       # Number of floating point alu accesses
system.cpu.iq.fp_inst_queue_reads            41422256                       # Number of floating instruction queue reads
system.cpu.iq.fp_inst_queue_wakeup_accesses     13729047                       # Number of floating instruction queue wakeup accesses
system.cpu.iq.fp_inst_queue_writes           14658934                       # Number of floating instruction queue writes
system.cpu.iq.fu_busy_cnt::0                122983158                       # FU busy when requested
system.cpu.iq.fu_busy_cnt::1                122928729                       # FU busy when requested
system.cpu.iq.fu_busy_cnt::total            245911887                       # FU busy when requested
system.cpu.iq.fu_busy_rate::0                0.356071                       # FU busy rate (busy events/executed inst)
system.cpu.iq.fu_busy_rate::1                0.355913                       # FU busy rate (busy events/executed inst)
system.cpu.iq.fu_busy_rate::total            0.711984                       # FU busy rate (busy events/executed inst)
system.cpu.iq.fu_full::No_OpClass                   0      0.00%      0.00% # attempts to use FU when none available
system.cpu.iq.fu_full::IntAlu               115660170     47.03%     47.03% # attempts to use FU when none available
system.cpu.iq.fu_full::IntMult                     64      0.00%     47.03% # attempts to use FU when none available
system.cpu.iq.fu_full::IntDiv                  382070      0.16%     47.19% # attempts to use FU when none available
system.cpu.iq.fu_full::FloatAdd               1947048      0.79%     47.98% # attempts to use FU when none available
system.cpu.iq.fu_full::FloatCmp                     0      0.00%     47.98% # attempts to use FU when none available
system.cpu.iq.fu_full::FloatCvt                  1954      0.00%     47.98% # attempts to use FU when none available
system.cpu.iq.fu_full::FloatMult                    0      0.00%     47.98% # attempts to use FU when none available
system.cpu.iq.fu_full::FloatMultAcc                 0      0.00%     47.98% # attempts to use FU when none available
system.cpu.iq.fu_full::FloatDiv                     0      0.00%     47.98% # attempts to use FU when none available
system.cpu.iq.fu_full::FloatMisc                    0      0.00%     47.98% # attempts to use FU when none available
system.cpu.iq.fu_full::FloatSqrt                    0      0.00%     47.98% # attempts to use FU when none available
system.cpu.iq.fu_full::SimdAdd                  15600      0.01%     47.99% # attempts to use FU when none available
system.cpu.iq.fu_full::SimdAddAcc                   0      0.00%     47.99% # attempts to use FU when none available
system.cpu.iq.fu_full::SimdAlu                  92352      0.04%     48.03% # attempts to use FU when none available
system.cpu.iq.fu_full::SimdCmp                      6      0.00%     48.03% # attempts to use FU when none available
system.cpu.iq.fu_full::SimdCvt                  32804      0.01%     48.04% # attempts to use FU when none available
system.cpu.iq.fu_full::SimdMisc               4627214      1.88%     49.92% # attempts to use FU when none available
system.cpu.iq.fu_full::SimdMult                     0      0.00%     49.92% # attempts to use FU when none available
system.cpu.iq.fu_full::SimdMultAcc                  0      0.00%     49.92% # attempts to use FU when none available
system.cpu.iq.fu_full::SimdShift                 5111      0.00%     49.92% # attempts to use FU when none available
system.cpu.iq.fu_full::SimdShiftAcc                 0      0.00%     49.92% # attempts to use FU when none available
system.cpu.iq.fu_full::SimdDiv                      0      0.00%     49.92% # attempts to use FU when none available
system.cpu.iq.fu_full::SimdSqrt                     0      0.00%     49.92% # attempts to use FU when none available
system.cpu.iq.fu_full::SimdFloatAdd                 0      0.00%     49.92% # attempts to use FU when none available
system.cpu.iq.fu_full::SimdFloatAlu                 0      0.00%     49.92% # attempts to use FU when none available
system.cpu.iq.fu_full::SimdFloatCmp                 0      0.00%     49.92% # attempts to use FU when none available
system.cpu.iq.fu_full::SimdFloatCvt             62983      0.03%     49.95% # attempts to use FU when none available
system.cpu.iq.fu_full::SimdFloatDiv                 0      0.00%     49.95% # attempts to use FU when none available
system.cpu.iq.fu_full::SimdFloatMisc                0      0.00%     49.95% # attempts to use FU when none available
system.cpu.iq.fu_full::SimdFloatMult            49923      0.02%     49.97% # attempts to use FU when none available
system.cpu.iq.fu_full::SimdFloatMultAcc             0      0.00%     49.97% # attempts to use FU when none available
system.cpu.iq.fu_full::SimdFloatSqrt                0      0.00%     49.97% # attempts to use FU when none available
system.cpu.iq.fu_full::SimdReduceAdd                0      0.00%     49.97% # attempts to use FU when none available
system.cpu.iq.fu_full::SimdReduceAlu                0      0.00%     49.97% # attempts to use FU when none available
system.cpu.iq.fu_full::SimdReduceCmp                0      0.00%     49.97% # attempts to use FU when none available
system.cpu.iq.fu_full::SimdFloatReduceAdd            0      0.00%     49.97% # attempts to use FU when none available
system.cpu.iq.fu_full::SimdFloatReduceCmp            0      0.00%     49.97% # attempts to use FU when none available
system.cpu.iq.fu_full::SimdAes                      0      0.00%     49.97% # attempts to use FU when none available
system.cpu.iq.fu_full::SimdAesMix                   0      0.00%     49.97% # attempts to use FU when none available
system.cpu.iq.fu_full::SimdSha1Hash                 0      0.00%     49.97% # attempts to use FU when none available
system.cpu.iq.fu_full::SimdSha1Hash2                0      0.00%     49.97% # attempts to use FU when none available
system.cpu.iq.fu_full::SimdSha256Hash               0      0.00%     49.97% # attempts to use FU when none available
system.cpu.iq.fu_full::SimdSha256Hash2              0      0.00%     49.97% # attempts to use FU when none available
system.cpu.iq.fu_full::SimdShaSigma2                0      0.00%     49.97% # attempts to use FU when none available
system.cpu.iq.fu_full::SimdShaSigma3                0      0.00%     49.97% # attempts to use FU when none available
system.cpu.iq.fu_full::SimdPredAlu                  0      0.00%     49.97% # attempts to use FU when none available
system.cpu.iq.fu_full::MemRead               88613087     36.03%     86.00% # attempts to use FU when none available
system.cpu.iq.fu_full::MemWrite              34421501     14.00%    100.00% # attempts to use FU when none available
system.cpu.iq.fu_full::FloatMemRead                 0      0.00%    100.00% # attempts to use FU when none available
system.cpu.iq.fu_full::FloatMemWrite                0      0.00%    100.00% # attempts to use FU when none available
system.cpu.iq.fu_full::IprAccess                    0      0.00%    100.00% # attempts to use FU when none available
system.cpu.iq.fu_full::InstPrefetch                 0      0.00%    100.00% # attempts to use FU when none available
system.cpu.iq.int_alu_accesses              804773051                       # Number of integer alu accesses
system.cpu.iq.int_inst_queue_reads         1272521540                       # Number of integer instruction queue reads
system.cpu.iq.int_inst_queue_wakeup_accesses    327672731                       # Number of integer instruction queue wakeup accesses
system.cpu.iq.int_inst_queue_writes         409185475                       # Number of integer instruction queue writes
system.cpu.iq.iqInstsAdded                  367273656                       # Number of instructions added to the IQ (excludes non-spec)
system.cpu.iq.iqInstsIssued                 345389711                       # Number of instructions issued
system.cpu.iq.iqNonSpecInstsAdded                2665                       # Number of non-speculative instructions added to the IQ
system.cpu.iq.iqSquashedInstsExamined        56566403                       # Number of squashed instructions iterated over during squash; mainly for profiling
system.cpu.iq.iqSquashedInstsIssued           3224036                       # Number of squashed instructions issued
system.cpu.iq.iqSquashedNonSpecRemoved            259                       # Number of squashed non-spec instructions that were removed
system.cpu.iq.iqSquashedOperandsExamined     89648958                       # Number of squashed operands that are examined and possibly removed from graph
system.cpu.iq.issued_per_cycle::samples     128344715                       # Number of insts issued each cycle
system.cpu.iq.issued_per_cycle::mean         2.691110                       # Number of insts issued each cycle
system.cpu.iq.issued_per_cycle::stdev        1.674293                       # Number of insts issued each cycle
system.cpu.iq.issued_per_cycle::underflows            0      0.00%      0.00% # Number of insts issued each cycle
system.cpu.iq.issued_per_cycle::0            14723247     11.47%     11.47% # Number of insts issued each cycle
system.cpu.iq.issued_per_cycle::1            17008508     13.25%     24.72% # Number of insts issued each cycle
system.cpu.iq.issued_per_cycle::2            31507233     24.55%     49.27% # Number of insts issued each cycle
system.cpu.iq.issued_per_cycle::3            22110756     17.23%     66.50% # Number of insts issued each cycle
system.cpu.iq.issued_per_cycle::4            22657328     17.65%     84.15% # Number of insts issued each cycle
system.cpu.iq.issued_per_cycle::5            14696940     11.45%     95.61% # Number of insts issued each cycle
system.cpu.iq.issued_per_cycle::6             4681266      3.65%     99.25% # Number of insts issued each cycle
system.cpu.iq.issued_per_cycle::7              842635      0.66%     99.91% # Number of insts issued each cycle
system.cpu.iq.issued_per_cycle::8              116802      0.09%    100.00% # Number of insts issued each cycle
system.cpu.iq.issued_per_cycle::overflows            0      0.00%    100.00% # Number of insts issued each cycle
system.cpu.iq.issued_per_cycle::min_value            0                       # Number of insts issued each cycle
system.cpu.iq.issued_per_cycle::max_value            8                       # Number of insts issued each cycle
system.cpu.iq.issued_per_cycle::total       128344715                       # Number of insts issued each cycle
system.cpu.iq.rate                           2.688965                       # Inst issue rate
system.cpu.iq.vec_alu_accesses                      0                       # Number of vector alu accesses
system.cpu.iq.vec_inst_queue_reads                  0                       # Number of vector instruction queue reads
system.cpu.iq.vec_inst_queue_wakeup_accesses            0                       # Number of vector instruction queue wakeup accesses
system.cpu.iq.vec_inst_queue_writes                 0                       # Number of vector instruction queue writes
system.cpu.memDep0.conflictingLoads           2328086                       # Number of conflicting loads.
system.cpu.memDep0.conflictingStores           519363                       # Number of conflicting stores.
system.cpu.memDep0.insertedLoads             33917655                       # Number of loads inserted to the mem dependence unit.
system.cpu.memDep0.insertedStores            14391943                       # Number of stores inserted to the mem dependence unit.
system.cpu.memDep1.conflictingLoads           2295647                       # Number of conflicting loads.
system.cpu.memDep1.conflictingStores           509293                       # Number of conflicting stores.
system.cpu.memDep1.insertedLoads             33866657                       # Number of loads inserted to the mem dependence unit.
system.cpu.memDep1.insertedStores            14364407                       # Number of stores inserted to the mem dependence unit.
system.cpu.misc_regfile_reads               140278572                       # number of misc regfile reads
system.cpu.misc_regfile_writes                   1404                       # number of misc regfile writes
system.cpu.numCycles                        128447060                       # number of cpu cycles simulated
system.cpu.numWorkItemsCompleted                    0                       # number of work items this cpu completed
system.cpu.numWorkItemsStarted                      0                       # number of work items this cpu started
system.cpu.timesIdled                            1878                       # Number of times that the entire CPU went into an idle state and unscheduled itself
system.cpu.workload0.numSyscalls                   85                       # Number of system calls
system.cpu.workload1.numSyscalls                   85                       # Number of system calls
system.membus.snoop_filter.hit_multi_requests            0                       # Number of requests hitting in the snoop filter with multiple (>1) holders of the requested data.
system.membus.snoop_filter.hit_multi_snoops            0                       # Number of snoops hitting in the snoop filter with multiple (>1) holders of the requested data.
system.membus.snoop_filter.hit_single_requests        54715                       # Number of requests hitting in the snoop filter with a single holder of the requested data.
system.membus.snoop_filter.hit_single_snoops            0                       # Number of snoops hitting in the snoop filter with a single holder of the requested data.
system.membus.snoop_filter.tot_requests        152247                       # Total number of requests made to the snoop filter.
system.membus.snoop_filter.tot_snoops               0                       # Total number of snoops made to the snoop filter.
system.tol2bus.snoop_filter.hit_multi_requests          922                       # Number of requests hitting in the snoop filter with multiple (>1) holders of the requested data.
system.tol2bus.snoop_filter.hit_multi_snoops            1                       # Number of snoops hitting in the snoop filter with multiple (>1) holders of the requested data.
system.tol2bus.snoop_filter.hit_single_requests      1007998                       # Number of requests hitting in the snoop filter with a single holder of the requested data.
system.tol2bus.snoop_filter.hit_single_snoops          216                       # Number of snoops hitting in the snoop filter with a single holder of the requested data.
system.tol2bus.snoop_filter.tot_requests      2016637                       # Total number of requests made to the snoop filter.
system.tol2bus.snoop_filter.tot_snoops            217                       # Total number of snoops made to the snoop filter.
sim_insts                                   200162318                       # Number of instructions simulated
sim_ops                                     310709783                       # Number of ops (including micro ops) simulated
host_inst_rate                                 115265                       # Simulator instruction rate (inst/s)
host_op_rate                                   178925                       # Simulator op (including micro ops) rate (op/s)
system.clk_domain.clock                          1000                       # Clock period in ticks
system.cpu.branchPred.lookups                35802663                       # Number of BP lookups
system.cpu.branchPred.condPredicted          23944961                       # Number of conditional branches predicted
system.cpu.branchPred.condIncorrect           1253109                       # Number of conditional branches incorrect
system.cpu.branchPred.BTBLookups             18523444                       # Number of BTB lookups
system.cpu.branchPred.BTBHits                18440756                       # Number of BTB hits
system.cpu.branchPred.BTBHitPct             99.553604                       # BTB Hit Percentage
system.cpu.branchPred.RASUsed                 5370274                       # Number of times the RAS was used to get a target.
system.cpu.branchPred.RASIncorrect                 35                       # Number of incorrect RAS predictions.
system.cpu.branchPred.indirectLookups           39686                       # Number of indirect predictor lookups.
system.cpu.branchPred.indirectHits              24135                       # Number of indirect target hits.
system.cpu.branchPred.indirectMisses            15551                       # Number of indirect misses.
system.cpu.branchPred.indirectMispredicted         3274                       # Number of mispredicted indirect branches.
system.cpu.branchPred.power_state.pwrStateResidencyTicks::UNDEFINED  64223529500                       # Cumulative time (in ticks) in various power states
system.cpu.commit.commitSquashedInsts        53694602                       # The number of squashed insts skipped by commit
system.cpu.commit.commitNonSpecStalls            2406                       # The number of times commit has been forced to stall to communicate backwards
system.cpu.commit.branchMispredicts           1240963                       # The number of times a branch was mispredicted
system.cpu.commit.numCommittedDist::samples    127821991                       # Number of insts commited each cycle
system.cpu.commit.numCommittedDist::mean     2.430801                       # Number of insts commited each cycle
system.cpu.commit.numCommittedDist::stdev     2.547037                       # Number of insts commited each cycle
system.cpu.commit.numCommittedDist::underflows            0      0.00%      0.00% # Number of insts commited each cycle
system.cpu.commit.numCommittedDist::0        32477826     25.41%     25.41% # Number of insts commited each cycle
system.cpu.commit.numCommittedDist::1        27863650     21.80%     47.21% # Number of insts commited each cycle
system.cpu.commit.numCommittedDist::2        24784476     19.39%     66.60% # Number of insts commited each cycle
system.cpu.commit.numCommittedDist::3        12585409      9.85%     76.44% # Number of insts commited each cycle
system.cpu.commit.numCommittedDist::4         4426202      3.46%     79.91% # Number of insts commited each cycle
system.cpu.commit.numCommittedDist::5         6380158      4.99%     84.90% # Number of insts commited each cycle
system.cpu.commit.numCommittedDist::6         3110567      2.43%     87.33% # Number of insts commited each cycle
system.cpu.commit.numCommittedDist::7         2297670      1.80%     89.13% # Number of insts commited each cycle
system.cpu.commit.numCommittedDist::8        13896033     10.87%    100.00% # Number of insts commited each cycle
system.cpu.commit.numCommittedDist::overflows            0      0.00%    100.00% # Number of insts commited each cycle
system.cpu.commit.numCommittedDist::min_value            0                       # Number of insts commited each cycle
system.cpu.commit.numCommittedDist::max_value            8                       # Number of insts commited each cycle
system.cpu.commit.numCommittedDist::total    127821991                       # Number of insts commited each cycle
system.cpu.commit.instsCommitted::0         100162318                       # Number of instructions committed
system.cpu.commit.instsCommitted::1         100000000                       # Number of instructions committed
system.cpu.commit.instsCommitted::total     200162318                       # Number of instructions committed
system.cpu.commit.opsCommitted::0           155480764                       # Number of ops (including micro ops) committed
system.cpu.commit.opsCommitted::1           155229019                       # Number of ops (including micro ops) committed
system.cpu.commit.opsCommitted::total       310709783                       # Number of ops (including micro ops) committed
system.cpu.commit.memRefs::0                 42858594                       # Number of memory references committed
system.cpu.commit.memRefs::1                 42788460                       # Number of memory references committed
system.cpu.commit.memRefs::total             85647054                       # Number of memory references committed
system.cpu.commit.loads::0                   29498565                       # Number of loads committed
system.cpu.commit.loads::1                   29449883                       # Number of loads committed
system.cpu.commit.loads::total               58948448                       # Number of loads committed
system.cpu.commit.amos::0                           0                       # Number of atomic instructions committed
system.cpu.commit.amos::1                           0                       # Number of atomic instructions committed
system.cpu.commit.amos::total                       0                       # Number of atomic instructions committed
system.cpu.commit.membars::0                      334                       # Number of memory barriers committed
system.cpu.commit.membars::1                      334                       # Number of memory barriers committed
system.cpu.commit.membars::total                  668                       # Number of memory barriers committed
system.cpu.commit.branches::0                10796087                       # Number of branches committed
system.cpu.commit.branches::1                10778507                       # Number of branches committed
system.cpu.commit.branches::total            21574594                       # Number of branches committed
system.cpu.commit.vector::0                         0                       # Number of committed Vector instructions.
system.cpu.commit.vector::1                         0                       # Number of committed Vector instructions.
system.cpu.commit.vector::total                     0                       # Number of committed Vector instructions.
system.cpu.commit.floating::0                 6706326                       # Number of committed floating point instructions.
system.cpu.commit.floating::1                 6695840                       # Number of committed floating point instructions.
system.cpu.commit.floating::total            13402166                       # Number of committed floating point instructions.
system.cpu.commit.integer::0                149698966                       # Number of committed integer instructions.
system.cpu.commit.integer::1                149456646                       # Number of committed integer instructions.
system.cpu.commit.integer::total            299155612                       # Number of committed integer instructions.
system.cpu.commit.functionCalls::0            1899125                       # Number of function calls committed.
system.cpu.commit.functionCalls::1            1895992                       # Number of function calls committed.
system.cpu.commit.functionCalls::total        3795117                       # Number of function calls committed.
system.cpu.commit.committedInstType_0::No_OpClass      1919638      1.23%      1.23% # Class of committed instruction
system.cpu.commit.committedInstType_0::IntAlu    105530712     67.87%     69.11% # Class of committed instruction
system.cpu.commit.committedInstType_0::IntMult           38      0.00%     69.11% # Class of committed instruction
system.cpu.commit.committedInstType_0::IntDiv        40525      0.03%     69.13% # Class of committed instruction
system.cpu.commit.committedInstType_0::FloatAdd      1677007      1.08%     70.21% # Class of committed instruction
system.cpu.commit.committedInstType_0::FloatCmp            0      0.00%     70.21% # Class of committed instruction
system.cpu.commit.committedInstType_0::FloatCvt         1248      0.00%     70.21% # Class of committed instruction
system.cpu.commit.committedInstType_0::FloatMult            0      0.00%     70.21% # Class of committed instruction
system.cpu.commit.committedInstType_0::FloatMultAcc            0      0.00%     70.21% # Class of committed instruction
system.cpu.commit.committedInstType_0::FloatDiv            0      0.00%     70.21% # Class of committed instruction
system.cpu.commit.committedInstType_0::FloatMisc            0      0.00%     70.21% # Class of committed instruction
system.cpu.commit.committedInstType_0::FloatSqrt            0      0.00%     70.21% # Class of committed instruction
system.cpu.commit.committedInstType_0::SimdAdd         7936      0.01%     70.22% # Class of committed instruction
system.cpu.commit.committedInstType_0::SimdAddAcc            0      0.00%     70.22% # Class of committed instruction
system.cpu.commit.committedInstType_0::SimdAlu        35481      0.02%     70.24% # Class of committed instruction
system.cpu.commit.committedInstType_0::SimdCmp            6      0.00%     70.24% # Class of committed instruction
system.cpu.commit.committedInstType_0::SimdCvt        16318      0.01%     70.25% # Class of committed instruction
system.cpu.commit.committedInstType_0::SimdMisc      3359679      2.16%     72.41% # Class of committed instruction
system.cpu.commit.committedInstType_0::SimdMult            0      0.00%     72.41% # Class of committed instruction
system.cpu.commit.committedInstType_0::SimdMultAcc            0      0.00%     72.41% # Class of committed instruction
system.cpu.commit.committedInstType_0::SimdShift         2037      0.00%     72.41% # Class of committed instruction
system.cpu.commit.committedInstType_0::SimdShiftAcc            0      0.00%     72.41% # Class of committed instruction
system.cpu.commit.committedInstType_0::SimdDiv            0      0.00%     72.41% # Class of committed instruction
system.cpu.commit.committedInstType_0::SimdSqrt            0      0.00%     72.41% # Class of committed instruction
system.cpu.commit.committedInstType_0::SimdFloatAdd            0      0.00%     72.41% # Class of committed instruction
system.cpu.commit.committedInstType_0::SimdFloatAlu            0      0.00%     72.41% # Class of committed instruction
system.cpu.commit.committedInstType_0::SimdFloatCmp            0      0.00%     72.41% # Class of committed instruction
system.cpu.commit.committedInstType_0::SimdFloatCvt        21030      0.01%     72.43% # Class of committed instruction
system.cpu.commit.committedInstType_0::SimdFloatDiv            0      0.00%     72.43% # Class of committed instruction
system.cpu.commit.committedInstType_0::SimdFloatMisc            0      0.00%     72.43% # Class of committed instruction
system.cpu.commit.committedInstType_0::SimdFloatMult        10515      0.01%     72.43% # Class of committed instruction
system.cpu.commit.committedInstType_0::SimdFloatMultAcc            0      0.00%     72.43% # Class of committed instruction
system.cpu.commit.committedInstType_0::SimdFloatSqrt            0      0.00%     72.43% # Class of committed instruction
system.cpu.commit.committedInstType_0::SimdReduceAdd            0      0.00%     72.43% # Class of committed instruction
system.cpu.commit.committedInstType_0::SimdReduceAlu            0      0.00%     72.43% # Class of committed instruction
system.cpu.commit.committedInstType_0::SimdReduceCmp            0      0.00%     72.43% # Class of committed instruction
system.cpu.commit.committedInstType_0::SimdFloatReduceAdd            0      0.00%     72.43% # Class of committed instruction
system.cpu.commit.committedInstType_0::SimdFloatReduceCmp            0      0.00%     72.43% # Class of committed instruction
system.cpu.commit.committedInstType_0::SimdAes            0      0.00%     72.43% # Class of committed instruction
system.cpu.commit.committedInstType_0::SimdAesMix            0      0.00%     72.43% # Class of committed instruction
system.cpu.commit.committedInstType_0::SimdSha1Hash            0      0.00%     72.43% # Class of committed instruction
system.cpu.commit.committedInstType_0::SimdSha1Hash2            0      0.00%     72.43% # Class of committed instruction
system.cpu.commit.committedInstType_0::SimdSha256Hash            0      0.00%     72.43% # Class of committed instruction
system.cpu.commit.committedInstType_0::SimdSha256Hash2            0      0.00%     72.43% # Class of committed instruction
system.cpu.commit.committedInstType_0::SimdShaSigma2            0      0.00%     72.43% # Class of committed instruction
system.cpu.commit.committedInstType_0::SimdShaSigma3            0      0.00%     72.43% # Class of committed instruction
system.cpu.commit.committedInstType_0::SimdPredAlu            0      0.00%     72.43% # Class of committed instruction
system.cpu.commit.committedInstType_0::MemRead     29455966     18.95%     91.38% # Class of committed instruction
system.cpu.commit.committedInstType_0::MemWrite     12248055      7.88%     99.26% # Class of committed instruction
system.cpu.commit.committedInstType_0::FloatMemRead        42599      0.03%     99.28% # Class of committed instruction
system.cpu.commit.committedInstType_0::FloatMemWrite      1111974      0.72%    100.00% # Class of committed instruction
system.cpu.commit.committedInstType_0::IprAccess            0      0.00%    100.00% # Class of committed instruction
system.cpu.commit.committedInstType_0::InstPrefetch            0      0.00%    100.00% # Class of committed instruction
system.cpu.commit.committedInstType_0::total    155480764                       # Class of committed instruction
system.cpu.commit.committedInstType_1::No_OpClass      1916505      1.23%      1.23% # Class of committed instruction
system.cpu.commit.committedInstType_1::IntAlu    105360622     67.87%     69.11% # Class of committed instruction
system.cpu.commit.committedInstType_1::IntMult           38      0.00%     69.11% # Class of committed instruction
system.cpu.commit.committedInstType_1::IntDiv        40525      0.03%     69.14% # Class of committed instruction
system.cpu.commit.committedInstType_1::FloatAdd      1674215      1.08%     70.21% # Class of committed instruction
system.cpu.commit.committedInstType_1::FloatCmp            0      0.00%     70.21% # Class of committed instruction
system.cpu.commit.committedInstType_1::FloatCvt         1248      0.00%     70.21% # Class of committed instruction
system.cpu.commit.committedInstType_1::FloatMult            0      0.00%     70.21% # Class of committed instruction
system.cpu.commit.committedInstType_1::FloatMultAcc            0      0.00%     70.21% # Class of committed instruction
system.cpu.commit.committedInstType_1::FloatDiv            0      0.00%     70.21% # Class of committed instruction
system.cpu.commit.committedInstType_1::FloatMisc            0      0.00%     70.21% # Class of committed instruction
system.cpu.commit.committedInstType_1::FloatSqrt            0      0.00%     70.21% # Class of committed instruction
system.cpu.commit.committedInstType_1::SimdAdd         7936      0.01%     70.22% # Class of committed instruction
system.cpu.commit.committedInstType_1::SimdAddAcc            0      0.00%     70.22% # Class of committed instruction
system.cpu.commit.committedInstType_1::SimdAlu        35477      0.02%     70.24% # Class of committed instruction
system.cpu.commit.committedInstType_1::SimdCmp            6      0.00%     70.24% # Class of committed instruction
system.cpu.commit.committedInstType_1::SimdCvt        16318      0.01%     70.25% # Class of committed instruction
system.cpu.commit.committedInstType_1::SimdMisc      3354093      2.16%     72.41% # Class of committed instruction
system.cpu.commit.committedInstType_1::SimdMult            0      0.00%     72.41% # Class of committed instruction
system.cpu.commit.committedInstType_1::SimdMultAcc            0      0.00%     72.41% # Class of committed instruction
system.cpu.commit.committedInstType_1::SimdShift         2037      0.00%     72.41% # Class of committed instruction
system.cpu.commit.committedInstType_1::SimdShiftAcc            0      0.00%     72.41% # Class of committed instruction
system.cpu.commit.committedInstType_1::SimdDiv            0      0.00%     72.41% # Class of committed instruction
system.cpu.commit.committedInstType_1::SimdSqrt            0      0.00%     72.41% # Class of committed instruction
system.cpu.commit.committedInstType_1::SimdFloatAdd            0      0.00%     72.41% # Class of committed instruction
system.cpu.commit.committedInstType_1::SimdFloatAlu            0      0.00%     72.41% # Class of committed instruction
system.cpu.commit.committedInstType_1::SimdFloatCmp            0      0.00%     72.41% # Class of committed instruction
system.cpu.commit.committedInstType_1::SimdFloatCvt        21026      0.01%     72.43% # Class of committed instruction
system.cpu.commit.committedInstType_1::SimdFloatDiv            0      0.00%     72.43% # Class of committed instruction
system.cpu.commit.committedInstType_1::SimdFloatMisc            0      0.00%     72.43% # Class of committed instruction
system.cpu.commit.committedInstType_1::SimdFloatMult        10513      0.01%     72.44% # Class of committed instruction
system.cpu.commit.committedInstType_1::SimdFloatMultAcc            0      0.00%     72.44% # Class of committed instruction
system.cpu.commit.committedInstType_1::SimdFloatSqrt            0      0.00%     72.44% # Class of committed instruction
system.cpu.commit.committedInstType_1::SimdReduceAdd            0      0.00%     72.44% # Class of committed instruction
system.cpu.commit.committedInstType_1::SimdReduceAlu            0      0.00%     72.44% # Class of committed instruction
system.cpu.commit.committedInstType_1::SimdReduceCmp            0      0.00%     72.44% # Class of committed instruction
system.cpu.commit.committedInstType_1::SimdFloatReduceAdd            0      0.00%     72.44% # Class of committed instruction
system.cpu.commit.committedInstType_1::SimdFloatReduceCmp            0      0.00%     72.44% # Class of committed instruction
system.cpu.commit.committedInstType_1::SimdAes            0      0.00%     72.44% # Class of committed instruction
system.cpu.commit.committedInstType_1::SimdAesMix            0      0.00%     72.44% # Class of committed instruction
system.cpu.commit.committedInstType_1::SimdSha1Hash            0      0.00%     72.44% # Class of committed instruction
system.cpu.commit.committedInstType_1::SimdSha1Hash2            0      0.00%     72.44% # Class of committed instruction
system.cpu.commit.committedInstType_1::SimdSha256Hash            0      0.00%     72.44% # Class of committed instruction
system.cpu.commit.committedInstType_1::SimdSha256Hash2            0      0.00%     72.44% # Class of committed instruction
system.cpu.commit.committedInstType_1::SimdShaSigma2            0      0.00%     72.44% # Class of committed instruction
system.cpu.commit.committedInstType_1::SimdShaSigma3            0      0.00%     72.44% # Class of committed instruction
system.cpu.commit.committedInstType_1::SimdPredAlu            0      0.00%     72.44% # Class of committed instruction
system.cpu.commit.committedInstType_1::MemRead     29407288     18.94%     91.38% # Class of committed instruction
system.cpu.commit.committedInstType_1::MemWrite     12227999      7.88%     99.26% # Class of committed instruction
system.cpu.commit.committedInstType_1::FloatMemRead        42595      0.03%     99.28% # Class of committed instruction
system.cpu.commit.committedInstType_1::FloatMemWrite      1110578      0.72%    100.00% # Class of committed instruction
system.cpu.commit.committedInstType_1::IprAccess            0      0.00%    100.00% # Class of committed instruction
system.cpu.commit.committedInstType_1::InstPrefetch            0      0.00%    100.00% # Class of committed instruction
system.cpu.commit.committedInstType_1::total    155229019                       # Class of committed instruction
system.cpu.commit.committedInstType::total    310709783      0.00%      0.00% # Class of committed instruction
system.cpu.commit.commitEligibleSamples      13896033                       # number cycles where commit BW limit reached
system.cpu.dcache.demand_hits::.cpu.data     80825150                       # number of demand (read+write) hits
system.cpu.dcache.demand_hits::total         80825150                       # number of demand (read+write) hits
system.cpu.dcache.overall_hits::.cpu.data     80825150                       # number of overall hits
system.cpu.dcache.overall_hits::total        80825150                       # number of overall hits
system.cpu.dcache.demand_misses::.cpu.data      1736025                       # number of demand (read+write) misses
system.cpu.dcache.demand_misses::total        1736025                       # number of demand (read+write) misses
system.cpu.dcache.overall_misses::.cpu.data      1736025                       # number of overall misses
system.cpu.dcache.overall_misses::total       1736025                       # number of overall misses
system.cpu.dcache.demand_miss_latency::.cpu.data  28193971711                       # number of demand (read+write) miss cycles
system.cpu.dcache.demand_miss_latency::total  28193971711                       # number of demand (read+write) miss cycles
system.cpu.dcache.overall_miss_latency::.cpu.data  28193971711                       # number of overall miss cycles
system.cpu.dcache.overall_miss_latency::total  28193971711                       # number of overall miss cycles
system.cpu.dcache.demand_accesses::.cpu.data     82561175                       # number of demand (read+write) accesses
system.cpu.dcache.demand_accesses::total     82561175                       # number of demand (read+write) accesses
system.cpu.dcache.overall_accesses::.cpu.data     82561175                       # number of overall (read+write) accesses
system.cpu.dcache.overall_accesses::total     82561175                       # number of overall (read+write) accesses
system.cpu.dcache.demand_miss_rate::.cpu.data     0.021027                       # miss rate for demand accesses
system.cpu.dcache.demand_miss_rate::total     0.021027                       # miss rate for demand accesses
system.cpu.dcache.overall_miss_rate::.cpu.data     0.021027                       # miss rate for overall accesses
system.cpu.dcache.overall_miss_rate::total     0.021027                       # miss rate for overall accesses
system.cpu.dcache.demand_avg_miss_latency::.cpu.data 16240.533236                       # average overall miss latency
system.cpu.dcache.demand_avg_miss_latency::total 16240.533236                       # average overall miss latency
system.cpu.dcache.overall_avg_miss_latency::.cpu.data 16240.533236                       # average overall miss latency
system.cpu.dcache.overall_avg_miss_latency::total 16240.533236                       # average overall miss latency
system.cpu.dcache.blocked_cycles::no_mshrs           46                       # number of cycles access was blocked
system.cpu.dcache.blocked_cycles::no_targets       122883                       # number of cycles access was blocked
system.cpu.dcache.blocked::no_mshrs                 5                       # number of cycles access was blocked
system.cpu.dcache.blocked::no_targets            1670                       # number of cycles access was blocked
system.cpu.dcache.avg_blocked_cycles::no_mshrs     9.200000                       # average number of cycles each access was blocked
system.cpu.dcache.avg_blocked_cycles::no_targets    73.582635                       # average number of cycles each access was blocked
system.cpu.dcache.writebacks::.writebacks      1002051                       # number of writebacks
system.cpu.dcache.writebacks::total           1002051                       # number of writebacks
system.cpu.dcache.demand_mshr_hits::.cpu.data       733843                       # number of demand (read+write) MSHR hits
system.cpu.dcache.demand_mshr_hits::total       733843                       # number of demand (read+write) MSHR hits
system.cpu.dcache.overall_mshr_hits::.cpu.data       733843                       # number of overall MSHR hits
system.cpu.dcache.overall_mshr_hits::total       733843                       # number of overall MSHR hits
system.cpu.dcache.demand_mshr_misses::.cpu.data      1002182                       # number of demand (read+write) MSHR misses
system.cpu.dcache.demand_mshr_misses::total      1002182                       # number of demand (read+write) MSHR misses
system.cpu.dcache.overall_mshr_misses::.cpu.data      1002182                       # number of overall MSHR misses
system.cpu.dcache.overall_mshr_misses::total      1002182                       # number of overall MSHR misses
system.cpu.dcache.demand_mshr_miss_latency::.cpu.data  16631806711                       # number of demand (read+write) MSHR miss cycles
system.cpu.dcache.demand_mshr_miss_latency::total  16631806711                       # number of demand (read+write) MSHR miss cycles
system.cpu.dcache.overall_mshr_miss_latency::.cpu.data  16631806711                       # number of overall MSHR miss cycles
system.cpu.dcache.overall_mshr_miss_latency::total  16631806711                       # number of overall MSHR miss cycles
system.cpu.dcache.demand_mshr_miss_rate::.cpu.data     0.012139                       # mshr miss rate for demand accesses
system.cpu.dcache.demand_mshr_miss_rate::total     0.012139                       # mshr miss rate for demand accesses
system.cpu.dcache.overall_mshr_miss_rate::.cpu.data     0.012139                       # mshr miss rate for overall accesses
system.cpu.dcache.overall_mshr_miss_rate::total     0.012139                       # mshr miss rate for overall accesses
system.cpu.dcache.demand_avg_mshr_miss_latency::.cpu.data 16595.595122                       # average overall mshr miss latency
system.cpu.dcache.demand_avg_mshr_miss_latency::total 16595.595122                       # average overall mshr miss latency
system.cpu.dcache.overall_avg_mshr_miss_latency::.cpu.data 16595.595122                       # average overall mshr miss latency
system.cpu.dcache.overall_avg_mshr_miss_latency::total 16595.595122                       # average overall mshr miss latency
system.cpu.dcache.replacements                  22927                       # number of replacements
system.cpu.dcache.expired                      979124                       # dead blocks evicted
system.cpu.dcache.ReadReq_hits::.cpu.data     54215338                       # number of ReadReq hits
system.cpu.dcache.ReadReq_hits::total        54215338                       # number of ReadReq hits
system.cpu.dcache.ReadReq_misses::.cpu.data      1647213                       # number of ReadReq misses
system.cpu.dcache.ReadReq_misses::total       1647213                       # number of ReadReq misses
system.cpu.dcache.ReadReq_miss_latency::.cpu.data  22577206000                       # number of ReadReq miss cycles
system.cpu.dcache.ReadReq_miss_latency::total  22577206000                       # number of ReadReq miss cycles
system.cpu.dcache.ReadReq_accesses::.cpu.data     55862551                       # number of ReadReq accesses(hits+misses)
system.cpu.dcache.ReadReq_accesses::total     55862551                       # number of ReadReq accesses(hits+misses)
system.cpu.dcache.ReadReq_miss_rate::.cpu.data     0.029487                       # miss rate for ReadReq accesses
system.cpu.dcache.ReadReq_miss_rate::total     0.029487                       # miss rate for ReadReq accesses
system.cpu.dcache.ReadReq_avg_miss_latency::.cpu.data 13706.306349                       # average ReadReq miss latency
system.cpu.dcache.ReadReq_avg_miss_latency::total 13706.306349                       # average ReadReq miss latency
system.cpu.dcache.ReadReq_mshr_hits::.cpu.data       733818                       # number of ReadReq MSHR hits
system.cpu.dcache.ReadReq_mshr_hits::total       733818                       # number of ReadReq MSHR hits
system.cpu.dcache.ReadReq_mshr_misses::.cpu.data       913395                       # number of ReadReq MSHR misses
system.cpu.dcache.ReadReq_mshr_misses::total       913395                       # number of ReadReq MSHR misses
system.cpu.dcache.ReadReq_mshr_miss_latency::.cpu.data  11104229500                       # number of ReadReq MSHR miss cycles
system.cpu.dcache.ReadReq_mshr_miss_latency::total  11104229500                       # number of ReadReq MSHR miss cycles
system.cpu.dcache.ReadReq_mshr_miss_rate::.cpu.data     0.016351                       # mshr miss rate for ReadReq accesses
system.cpu.dcache.ReadReq_mshr_miss_rate::total     0.016351                       # mshr miss rate for ReadReq accesses
system.cpu.dcache.ReadReq_avg_mshr_miss_latency::.cpu.data 12157.094685                       # average ReadReq mshr miss latency
system.cpu.dcache.ReadReq_avg_mshr_miss_latency::total 12157.094685                       # average ReadReq mshr miss latency
system.cpu.dcache.WriteReq_hits::.cpu.data     26609812                       # number of WriteReq hits
system.cpu.dcache.WriteReq_hits::total       26609812                       # number of WriteReq hits
system.cpu.dcache.WriteReq_misses::.cpu.data        88812                       # number of WriteReq misses
system.cpu.dcache.WriteReq_misses::total        88812                       # number of WriteReq misses
system.cpu.dcache.WriteReq_miss_latency::.cpu.data   5616765711                       # number of WriteReq miss cycles
system.cpu.dcache.WriteReq_miss_latency::total   5616765711                       # number of WriteReq miss cycles
system.cpu.dcache.WriteReq_accesses::.cpu.data     26698624                       # number of WriteReq accesses(hits+misses)
system.cpu.dcache.WriteReq_accesses::total     26698624                       # number of WriteReq accesses(hits+misses)
system.cpu.dcache.WriteReq_miss_rate::.cpu.data     0.003326                       # miss rate for WriteReq accesses
system.cpu.dcache.WriteReq_miss_rate::total     0.003326                       # miss rate for WriteReq accesses
system.cpu.dcache.WriteReq_avg_miss_latency::.cpu.data 63243.319720                       # average WriteReq miss latency
system.cpu.dcache.WriteReq_avg_miss_latency::total 63243.319720                       # average WriteReq miss latency
system.cpu.dcache.WriteReq_mshr_hits::.cpu.data           25                       # number of WriteReq MSHR hits
system.cpu.dcache.WriteReq_mshr_hits::total           25                       # number of WriteReq MSHR hits
system.cpu.dcache.WriteReq_mshr_misses::.cpu.data        88787                       # number of WriteReq MSHR misses
system.cpu.dcache.WriteReq_mshr_misses::total        88787                       # number of WriteReq MSHR misses
system.cpu.dcache.WriteReq_mshr_miss_latency::.cpu.data   5527577211                       # number of WriteReq MSHR miss cycles
system.cpu.dcache.WriteReq_mshr_miss_latency::total   5527577211                       # number of WriteReq MSHR miss cycles
system.cpu.dcache.WriteReq_mshr_miss_rate::.cpu.data     0.003326                       # mshr miss rate for WriteReq accesses
system.cpu.dcache.WriteReq_mshr_miss_rate::total     0.003326                       # mshr miss rate for WriteReq accesses
system.cpu.dcache.WriteReq_avg_mshr_miss_latency::.cpu.data 62256.605258                       # average WriteReq mshr miss latency
system.cpu.dcache.WriteReq_avg_mshr_miss_latency::total 62256.605258                       # average WriteReq mshr miss latency
system.cpu.dcache.power_state.pwrStateResidencyTicks::UNDEFINED  64223529500                       # Cumulative time (in ticks) in various power states
system.cpu.dcache.tags.tagsinuse           170.942278                       # Cycle average of tags in use
system.cpu.dcache.tags.total_refs            81827332                       # Total number of references to valid blocks.
system.cpu.dcache.tags.sampled_refs           1002180                       # Sample count of references to valid blocks.
system.cpu.dcache.tags.avg_refs             81.649336                       # Average number of references to valid blocks.
system.cpu.dcache.tags.warmup_cycle            191500                       # Cycle when the warmup percentage was hit.
system.cpu.dcache.tags.occ_blocks::.cpu.data   170.942278                       # Average occupied blocks per requestor
system.cpu.dcache.tags.occ_percent::.cpu.data     0.333872                       # Average percentage of cache occupancy
system.cpu.dcache.tags.occ_percent::total     0.333872                       # Average percentage of cache occupancy
system.cpu.dcache.tags.occ_task_id_blocks::1024          129                       # Occupied blocks per task id
system.cpu.dcache.tags.age_task_id_blocks_1024::0            2                       # Occupied blocks per task id
system.cpu.dcache.tags.age_task_id_blocks_1024::1           25                       # Occupied blocks per task id
system.cpu.dcache.tags.age_task_id_blocks_1024::2           40                       # Occupied blocks per task id
system.cpu.dcache.tags.age_task_id_blocks_1024::3           28                       # Occupied blocks per task id
system.cpu.dcache.tags.age_task_id_blocks_1024::4           34                       # Occupied blocks per task id
system.cpu.dcache.tags.occ_task_id_percent::1024     0.251953                       # Percentage of cache occupancy per task id
system.cpu.dcache.tags.tag_accesses         661491580                       # Number of tag accesses
system.cpu.dcache.tags.data_accesses        661491580                       # Number of data accesses
system.cpu.dcache.tags.power_state.pwrStateResidencyTicks::UNDEFINED  64223529500                       # Cumulative time (in ticks) in various power states
system.cpu.decode.idleCycles                 35969323                       # Number of cycles decode is idle
system.cpu.decode.blockedCycles             106457439                       # Number of cycles decode is blocked
system.cpu.decode.runCycles                  72760564                       # Number of cycles decode is running
system.cpu.decode.unblockCycles              40257519                       # Number of cycles decode is unblocking
system.cpu.decode.squashCycles                1244585                       # Number of cycles decode is squashing
system.cpu.decode.branchResolved             16015413                       # Number of times decode resolved a  branch
system.cpu.decode.branchMispred                 12972                       # Number of times decode detected a branch misprediction
system.cpu.decode.decodedInsts              375131149                       # Number of instructions handled by decode
system.cpu.decode.squashedInsts               4816926                       # Number of squashed instructions handled by decode
system.cpu.dtb.rdAccesses                    62352533                       # TLB accesses on read requests
system.cpu.dtb.wrAccesses                    27532075                       # TLB accesses on write requests
system.cpu.dtb.rdMisses                       1056576                       # TLB misses on read requests
system.cpu.dtb.wrMisses                        190455                       # TLB misses on write requests
system.cpu.dtb.walker.power_state.pwrStateResidencyTicks::UNDEFINED  64223529500                       # Cumulative time (in ticks) in various power states
system.cpu.dtb_walker_cache.blocked_cycles::no_mshrs            0                       # number of cycles access was blocked
system.cpu.dtb_walker_cache.blocked_cycles::no_targets            0                       # number of cycles access was blocked
system.cpu.dtb_walker_cache.blocked::no_mshrs            0                       # number of cycles access was blocked
system.cpu.dtb_walker_cache.blocked::no_targets            0                       # number of cycles access was blocked
system.cpu.dtb_walker_cache.avg_blocked_cycles::no_mshrs          nan                       # average number of cycles each access was blocked
system.cpu.dtb_walker_cache.avg_blocked_cycles::no_targets          nan                       # average number of cycles each access was blocked
system.cpu.dtb_walker_cache.replacements            0                       # number of replacements
system.cpu.dtb_walker_cache.expired                 0                       # dead blocks evicted
system.cpu.dtb_walker_cache.power_state.pwrStateResidencyTicks::UNDEFINED  64223529500                       # Cumulative time (in ticks) in various power states
system.cpu.dtb_walker_cache.tags.tagsinuse            0                       # Cycle average of tags in use
system.cpu.dtb_walker_cache.tags.total_refs            0                       # Total number of references to valid blocks.
system.cpu.dtb_walker_cache.tags.sampled_refs            0                       # Sample count of references to valid blocks.
system.cpu.dtb_walker_cache.tags.avg_refs          nan                       # Average number of references to valid blocks.
system.cpu.dtb_walker_cache.tags.warmup_cycle            0                       # Cycle when the warmup percentage was hit.
system.cpu.dtb_walker_cache.tags.tag_accesses            0                       # Number of tag accesses
system.cpu.dtb_walker_cache.tags.data_accesses            0                       # Number of data accesses
system.cpu.dtb_walker_cache.tags.power_state.pwrStateResidencyTicks::UNDEFINED  64223529500                       # Cumulative time (in ticks) in various power states
system.cpu.fetch.icacheStallCycles            1027979                       # Number of cycles fetch is stalled on an Icache miss
system.cpu.fetch.insts                      251758490                       # Number of instructions fetch has processed
system.cpu.fetch.branches                    35802663                       # Number of branches that fetch encountered
system.cpu.fetch.predictedBranches           23835165                       # Number of branches that fetch has predicted taken
system.cpu.fetch.cycles                     127157399                       # Number of cycles fetch has run and was not squashing or blocked
system.cpu.fetch.squashCycles                 1257098                       # Number of cycles fetch has spent squashing
system.cpu.fetch.tlbCycles                       1748                       # Number of cycles fetch has spent waiting for tlb
system.cpu.fetch.miscStallCycles                  385                       # Number of cycles fetch has spent waiting on interrupts,or bad addresses, or out of MSHRs
system.cpu.fetch.cacheLines                  74183183                       # Number of cache lines fetched
system.cpu.fetch.icacheSquashes                  3592                       # Number of outstanding Icache misses that were squashed
system.cpu.fetch.tlbSquashes                      790                       # Number of outstanding ITLB misses that were squashed
system.cpu.fetch.SMTDist::samples           128344715                       # Number of Cycles each Thread Fetched
system.cpu.fetch.SMTDist::mean               0.498161                       # Number of Cycles each Thread Fetched
system.cpu.fetch.SMTDist::stdev              0.502440                       # Number of Cycles each Thread Fetched
system.cpu.fetch.SMTDist::underflows                0      0.00%      0.00% # Number of Cycles each Thread Fetched
system.cpu.fetch.SMTDist::-1                   157204      0.12%      0.12% # Number of Cycles each Thread Fetched
system.cpu.fetch.SMTDist::0                  64094015     49.94%     50.06% # Number of Cycles each Thread Fetched
system.cpu.fetch.SMTDist::1                  64093496     49.94%    100.00% # Number of Cycles each Thread Fetched
system.cpu.fetch.SMTDist::2                         0      0.00%    100.00% # Number of Cycles each Thread Fetched
system.cpu.fetch.SMTDist::overflows                 0      0.00%    100.00% # Number of Cycles each Thread Fetched
system.cpu.fetch.SMTDist::min_value                -1                       # Number of Cycles each Thread Fetched
system.cpu.fetch.SMTDist::max_value                 1                       # Number of Cycles each Thread Fetched
system.cpu.fetch.SMTDist::total             128344715                       # Number of Cycles each Thread Fetched
system.cpu.fetch.nisnDist::samples          128344715                       # Number of instructions fetched each cycle (Total)
system.cpu.fetch.nisnDist::mean              3.156760                       # Number of instructions fetched each cycle (Total)
system.cpu.fetch.nisnDist::stdev             2.846356                       # Number of instructions fetched each cycle (Total)
system.cpu.fetch.nisnDist::underflows               0      0.00%      0.00% # Number of instructions fetched each cycle (Total)
system.cpu.fetch.nisnDist::0                 42016405     32.74%     32.74% # Number of instructions fetched each cycle (Total)
system.cpu.fetch.nisnDist::1                  4823334      3.76%     36.50% # Number of instructions fetched each cycle (Total)
system.cpu.fetch.nisnDist::2                 12725680      9.92%     46.41% # Number of instructions fetched each cycle (Total)
system.cpu.fetch.nisnDist::3                 12269267      9.56%     55.97% # Number of instructions fetched each cycle (Total)
system.cpu.fetch.nisnDist::4                 12223664      9.52%     65.49% # Number of instructions fetched each cycle (Total)
system.cpu.fetch.nisnDist::5                 13181020     10.27%     75.76% # Number of instructions fetched each cycle (Total)
system.cpu.fetch.nisnDist::6                 10183162      7.93%     83.70% # Number of instructions fetched each cycle (Total)
system.cpu.fetch.nisnDist::7                  5205277      4.06%     87.75% # Number of instructions fetched each cycle (Total)
system.cpu.fetch.nisnDist::8                 15716906     12.25%    100.00% # Number of instructions fetched each cycle (Total)
system.cpu.fetch.nisnDist::overflows                0      0.00%    100.00% # Number of instructions fetched each cycle (Total)
system.cpu.fetch.nisnDist::min_value                0                       # Number of instructions fetched each cycle (Total)
system.cpu.fetch.nisnDist::max_value                8                       # Number of instructions fetched each cycle (Total)
system.cpu.fetch.nisnDist::total            128344715                       # Number of instructions fetched each cycle (Total)
system.cpu.fetch.branchRate                  0.278735                       # Number of branch fetches per cycle
system.cpu.fetch.rate                        1.960018                       # Number of inst fetches per cycle
system.cpu.icache.demand_hits::.cpu.inst     74175374                       # number of demand (read+write) hits
system.cpu.icache.demand_hits::total         74175374                       # number of demand (read+write) hits
system.cpu.icache.overall_hits::.cpu.inst     74175374                       # number of overall hits
system.cpu.icache.overall_hits::total        74175374                       # number of overall hits
system.cpu.icache.demand_misses::.cpu.inst         7806                       # number of demand (read+write) misses
system.cpu.icache.demand_misses::total           7806                       # number of demand (read+write) misses
system.cpu.icache.overall_misses::.cpu.inst         7806                       # number of overall misses
system.cpu.icache.overall_misses::total          7806                       # number of overall misses
system.cpu.icache.demand_miss_latency::.cpu.inst    385093000                       # number of demand (read+write) miss cycles
system.cpu.icache.demand_miss_latency::total    385093000                       # number of demand (read+write) miss cycles
[...]
system.mem_ctrls1.dram.perBankWrBursts::6          680                       # Per bank write bursts
system.mem_ctrls1.dram.perBankWrBursts::7          657                       # Per bank write bursts
system.mem_ctrls1.dram.perBankWrBursts::8          621                       # Per bank write bursts
system.mem_ctrls1.dram.perBankWrBursts::9          697                       # Per bank write bursts
system.mem_ctrls1.dram.perBankWrBursts::10          630                       # Per bank write bursts
system.mem_ctrls1.dram.perBankWrBursts::11          614                       # Per bank write bursts
system.mem_ctrls1.dram.perBankWrBursts::12          607                       # Per bank write bursts
system.mem_ctrls1.dram.perBankWrBursts::13          656                       # Per bank write bursts
system.mem_ctrls1.dram.perBankWrBursts::14          660                       # Per bank write bursts
system.mem_ctrls1.dram.perBankWrBursts::15          621                       # Per bank write bursts
system.mem_ctrls1.dram.perBankWrBursts::16          613                       # Per bank write bursts
system.mem_ctrls1.dram.perBankWrBursts::17          613                       # Per bank write bursts
system.mem_ctrls1.dram.perBankWrBursts::18          579                       # Per bank write bursts
system.mem_ctrls1.dram.perBankWrBursts::19          775                       # Per bank write bursts
system.mem_ctrls1.dram.perBankWrBursts::20          717                       # Per bank write bursts
system.mem_ctrls1.dram.perBankWrBursts::21          699                       # Per bank write bursts
system.mem_ctrls1.dram.perBankWrBursts::22          815                       # Per bank write bursts
system.mem_ctrls1.dram.perBankWrBursts::23          768                       # Per bank write bursts
system.mem_ctrls1.dram.perBankWrBursts::24          725                       # Per bank write bursts
system.mem_ctrls1.dram.perBankWrBursts::25          725                       # Per bank write bursts
system.mem_ctrls1.dram.perBankWrBursts::26          755                       # Per bank write bursts
system.mem_ctrls1.dram.perBankWrBursts::27          732                       # Per bank write bursts
system.mem_ctrls1.dram.perBankWrBursts::28          740                       # Per bank write bursts
system.mem_ctrls1.dram.perBankWrBursts::29          790                       # Per bank write bursts
system.mem_ctrls1.dram.perBankWrBursts::30          691                       # Per bank write bursts
system.mem_ctrls1.dram.perBankWrBursts::31          655                       # Per bank write bursts
system.mem_ctrls1.dram.totQLat              485505867                       # Total ticks spent queuing
system.mem_ctrls1.dram.totBusLat            162185100                       # Total ticks spent in databus transfers
system.mem_ctrls1.dram.totMemAccLat        1336928967                       # Total ticks spent from burst creation until serviced by the DRAM
system.mem_ctrls1.dram.avgQLat                9974.44                       # Average queueing delay per DRAM burst
system.mem_ctrls1.dram.avgBusLat              3332.00                       # Average bus latency per DRAM burst
system.mem_ctrls1.dram.avgMemAccLat          27466.44                       # Average memory access latency per DRAM burst
system.mem_ctrls1.dram.readRowHits              40795                       # Number of row buffer hits during reads
system.mem_ctrls1.dram.writeRowHits             16322                       # Number of row buffer hits during writes
system.mem_ctrls1.dram.readRowHitRate           83.81                       # Row buffer hit rate for reads
system.mem_ctrls1.dram.writeRowHitRate          75.12                       # Row buffer hit rate for writes
system.mem_ctrls1.dram.bytesPerActivate::samples        13286                       # Bytes accessed per row activation
system.mem_ctrls1.dram.bytesPerActivate::mean   339.138341                       # Bytes accessed per row activation
system.mem_ctrls1.dram.bytesPerActivate::gmean   220.729106                       # Bytes accessed per row activation
system.mem_ctrls1.dram.bytesPerActivate::stdev   319.381769                       # Bytes accessed per row activation
system.mem_ctrls1.dram.bytesPerActivate::0-127         2785     20.96%     20.96% # Bytes accessed per row activation
system.mem_ctrls1.dram.bytesPerActivate::128-255         4136     31.13%     52.09% # Bytes accessed per row activation
system.mem_ctrls1.dram.bytesPerActivate::256-383         1937     14.58%     66.67% # Bytes accessed per row activation
system.mem_ctrls1.dram.bytesPerActivate::384-511         1156      8.70%     75.37% # Bytes accessed per row activation
system.mem_ctrls1.dram.bytesPerActivate::512-639          723      5.44%     80.81% # Bytes accessed per row activation
system.mem_ctrls1.dram.bytesPerActivate::640-767          440      3.31%     84.13% # Bytes accessed per row activation
system.mem_ctrls1.dram.bytesPerActivate::768-895          247      1.86%     85.99% # Bytes accessed per row activation
system.mem_ctrls1.dram.bytesPerActivate::896-1023          196      1.48%     87.46% # Bytes accessed per row activation
system.mem_ctrls1.dram.bytesPerActivate::1024-1151         1666     12.54%    100.00% # Bytes accessed per row activation
system.mem_ctrls1.dram.bytesPerActivate::total        13286                       # Bytes accessed per row activation
system.mem_ctrls1.dram.bytesRead              3115200                       # Total number of bytes read from DRAM
system.mem_ctrls1.dram.bytesWritten           1390592                       # Total number of bytes written to DRAM
system.mem_ctrls1.dram.avgRdBW              48.505587                       # Average DRAM read bandwidth in MiBytes/s
system.mem_ctrls1.dram.avgWrBW              21.652376                       # Average DRAM write bandwidth in MiBytes/s
system.mem_ctrls1.dram.peakBW                19207.00                       # Theoretical peak bandwidth in MiByte/s
system.mem_ctrls1.dram.busUtil                   0.37                       # Data bus utilization in percentage
system.mem_ctrls1.dram.busUtilRead               0.25                       # Data bus utilization in percentage for reads
system.mem_ctrls1.dram.busUtilWrite              0.11                       # Data bus utilization in percentage for writes
system.mem_ctrls1.dram.pageHitRate              81.13                       # Row buffer hit rate, read and write combined
system.mem_ctrls1.dram.power_state.pwrStateResidencyTicks::UNDEFINED  64223529500                       # Cumulative time (in ticks) in various power states
system.mem_ctrls1.dram.rank0.actEnergy   17427586.176000                       # Energy for activate commands per rank (pJ)
system.mem_ctrls1.dram.rank0.preEnergy   23169752.390400                       # Energy for precharge commands per rank (pJ)
system.mem_ctrls1.dram.rank0.readEnergy  92639921.203200                       # Energy for read commands per rank (pJ)
system.mem_ctrls1.dram.rank0.writeEnergy 38847814.656000                       # Energy for write commands per rank (pJ)
system.mem_ctrls1.dram.rank0.refreshEnergy 11426594669.144415                       # Energy for refresh commands per rank (pJ)
system.mem_ctrls1.dram.rank0.actBackEnergy 6105903833.132417                       # Energy for active background per rank (pJ)
system.mem_ctrls1.dram.rank0.preBackEnergy 37233578656.780441                       # Energy for precharge background per rank (pJ)
system.mem_ctrls1.dram.rank0.actPowerDownEnergy            0                       # Energy for active power-down per rank (pJ)
system.mem_ctrls1.dram.rank0.prePowerDownEnergy            0                       # Energy for precharge power-down per rank (pJ)
system.mem_ctrls1.dram.rank0.selfRefreshEnergy            0                       # Energy for self refresh per rank (pJ)
system.mem_ctrls1.dram.rank0.totalEnergy 54938162233.484238                       # Total energy per rank (pJ)
system.mem_ctrls1.dram.rank0.averagePower   855.421100                       # Core power per rank (mW)
system.mem_ctrls1.dram.rank0.totalIdleTime            0                       # Total Idle time Per DRAM Rank
system.mem_ctrls1.dram.rank0.pwrStateTime::IDLE  56905680414                       # Time in different power states
system.mem_ctrls1.dram.rank0.pwrStateTime::REF   2886800000                       # Time in different power states
system.mem_ctrls1.dram.rank0.pwrStateTime::SREF            0                       # Time in different power states
system.mem_ctrls1.dram.rank0.pwrStateTime::PRE_PDN            0                       # Time in different power states
system.mem_ctrls1.dram.rank0.pwrStateTime::ACT   4431049086                       # Time in different power states
system.mem_ctrls1.dram.rank0.pwrStateTime::ACT_PDN            0                       # Time in different power states
system.mem_ctrls1.dram.rank1.actEnergy   24008152.896001                       # Energy for activate commands per rank (pJ)
system.mem_ctrls1.dram.rank1.preEnergy   31918531.478400                       # Energy for precharge commands per rank (pJ)
system.mem_ctrls1.dram.rank1.readEnergy  112102549.036796                       # Energy for read commands per rank (pJ)
system.mem_ctrls1.dram.rank1.writeEnergy 42816786.432000                       # Energy for write commands per rank (pJ)
system.mem_ctrls1.dram.rank1.refreshEnergy 11426594669.144415                       # Energy for refresh commands per rank (pJ)
system.mem_ctrls1.dram.rank1.actBackEnergy 9476004525.423481                       # Energy for active background per rank (pJ)
system.mem_ctrls1.dram.rank1.preBackEnergy 34644122757.619629                       # Energy for precharge background per rank (pJ)
system.mem_ctrls1.dram.rank1.actPowerDownEnergy            0                       # Energy for active power-down per rank (pJ)
system.mem_ctrls1.dram.rank1.prePowerDownEnergy            0                       # Energy for precharge power-down per rank (pJ)
system.mem_ctrls1.dram.rank1.selfRefreshEnergy            0                       # Energy for self refresh per rank (pJ)
system.mem_ctrls1.dram.rank1.totalEnergy 55757567972.031967                       # Total energy per rank (pJ)
system.mem_ctrls1.dram.rank1.averagePower   868.179753                       # Core power per rank (mW)
system.mem_ctrls1.dram.rank1.totalIdleTime            0                       # Total Idle time Per DRAM Rank
system.mem_ctrls1.dram.rank1.pwrStateTime::IDLE  52920865180                       # Time in different power states
system.mem_ctrls1.dram.rank1.pwrStateTime::REF   2886800000                       # Time in different power states
system.mem_ctrls1.dram.rank1.pwrStateTime::SREF            0                       # Time in different power states
system.mem_ctrls1.dram.rank1.pwrStateTime::PRE_PDN            0                       # Time in different power states
system.mem_ctrls1.dram.rank1.pwrStateTime::ACT   8415864320                       # Time in different power states
system.mem_ctrls1.dram.rank1.pwrStateTime::ACT_PDN            0                       # Time in different power states
system.mem_ctrls1.power_state.pwrStateResidencyTicks::UNDEFINED  64223529500                       # Cumulative time (in ticks) in various power states
system.membus.trans_dist::ReadResp              21862                       # Transaction distribution
system.membus.trans_dist::WritebackDirty        43554                       # Transaction distribution
system.membus.trans_dist::CleanEvict            11161                       # Transaction distribution
system.membus.trans_dist::ReadExReq             75670                       # Transaction distribution
system.membus.trans_dist::ReadExResp            75670                       # Transaction distribution
system.membus.trans_dist::ReadSharedReq         21862                       # Transaction distribution
system.membus.pkt_count_system.l2.mem_side_port::system.mem_ctrls0.port       124984                       # Packet count per connected requestor and responder (bytes)
system.membus.pkt_count_system.l2.mem_side_port::system.mem_ctrls1.port       124795                       # Packet count per connected requestor and responder (bytes)
system.membus.pkt_count_system.l2.mem_side_port::total       249779                       # Packet count per connected requestor and responder (bytes)
system.membus.pkt_count::total                 249779                       # Packet count per connected requestor and responder (bytes)
system.membus.pkt_size_system.l2.mem_side_port::system.mem_ctrls0.port      4515712                       # Cumulative packet size per connected requestor and responder (bytes)
system.membus.pkt_size_system.l2.mem_side_port::system.mem_ctrls1.port      4513792                       # Cumulative packet size per connected requestor and responder (bytes)
system.membus.pkt_size_system.l2.mem_side_port::total      9029504                       # Cumulative packet size per connected requestor and responder (bytes)
system.membus.pkt_size::total                 9029504                       # Cumulative packet size per connected requestor and responder (bytes)
system.membus.snoops                                0                       # Total snoops (count)
system.membus.snoopTraffic                          0                       # Total snoop traffic (bytes)
system.membus.snoop_fanout::samples             97532                       # Request fanout histogram
system.membus.snoop_fanout::mean                    0                       # Request fanout histogram
system.membus.snoop_fanout::stdev                   0                       # Request fanout histogram
system.membus.snoop_fanout::underflows              0      0.00%      0.00% # Request fanout histogram
system.membus.snoop_fanout::0                   97532    100.00%    100.00% # Request fanout histogram
system.membus.snoop_fanout::1                       0      0.00%    100.00% # Request fanout histogram
system.membus.snoop_fanout::overflows               0      0.00%    100.00% # Request fanout histogram
system.membus.snoop_fanout::min_value               0                       # Request fanout histogram
system.membus.snoop_fanout::max_value               0                       # Request fanout histogram
system.membus.snoop_fanout::total               97532                       # Request fanout histogram
system.membus.power_state.pwrStateResidencyTicks::UNDEFINED  64223529500                       # Cumulative time (in ticks) in various power states
system.membus.reqLayer4.occupancy           174918955                       # Layer occupancy (ticks)
system.membus.reqLayer4.utilization               0.3                       # Layer utilization (%)
system.membus.reqLayer5.occupancy           174845475                       # Layer occupancy (ticks)
system.membus.reqLayer5.utilization               0.3                       # Layer utilization (%)
system.membus.respLayer1.occupancy          515551569                       # Layer occupancy (ticks)
system.membus.respLayer1.utilization              0.8                       # Layer utilization (%)
system.tol2bus.trans_dist::ReadResp            919850                       # Transaction distribution
system.tol2bus.trans_dist::WritebackDirty       930291                       # Transaction distribution
system.tol2bus.trans_dist::WritebackClean       121259                       # Transaction distribution
system.tol2bus.trans_dist::CleanEvict           11376                       # Transaction distribution
system.tol2bus.trans_dist::HardPFReq               49                       # Transaction distribution
system.tol2bus.trans_dist::UpgradeReq               2                       # Transaction distribution
system.tol2bus.trans_dist::UpgradeResp              2                       # Transaction distribution
system.tol2bus.trans_dist::ReadExReq            88789                       # Transaction distribution
system.tol2bus.trans_dist::ReadExResp           88789                       # Transaction distribution
system.tol2bus.trans_dist::ReadCleanReq          6459                       # Transaction distribution
system.tol2bus.trans_dist::ReadSharedReq       913391                       # Transaction distribution
system.tol2bus.pkt_count_system.cpu.icache.mem_side_port::system.l2.cpu_side_port        18858                       # Packet count per connected requestor and responder (bytes)
system.tol2bus.pkt_count_system.cpu.dcache.mem_side_port::system.l2.cpu_side_port      3006415                       # Packet count per connected requestor and responder (bytes)
system.tol2bus.pkt_count::total               3025273                       # Packet count per connected requestor and responder (bytes)
system.tol2bus.pkt_size_system.cpu.icache.mem_side_port::system.l2.cpu_side_port       793536                       # Cumulative packet size per connected requestor and responder (bytes)
system.tol2bus.pkt_size_system.cpu.dcache.mem_side_port::system.l2.cpu_side_port    128270784                       # Cumulative packet size per connected requestor and responder (bytes)
system.tol2bus.pkt_size::total              129064320                       # Cumulative packet size per connected requestor and responder (bytes)
system.tol2bus.snoops                           54984                       # Total snoops (count)
system.tol2bus.snoopTraffic                   2787776                       # Total snoop traffic (bytes)
system.tol2bus.snoop_fanout::samples          1063620                       # Request fanout histogram
system.tol2bus.snoop_fanout::mean            0.001074                       # Request fanout histogram
system.tol2bus.snoop_fanout::stdev           0.032778                       # Request fanout histogram
system.tol2bus.snoop_fanout::underflows             0      0.00%      0.00% # Request fanout histogram
system.tol2bus.snoop_fanout::0                1062479     99.89%     99.89% # Request fanout histogram
system.tol2bus.snoop_fanout::1                   1140      0.11%    100.00% # Request fanout histogram
system.tol2bus.snoop_fanout::2                      1      0.00%    100.00% # Request fanout histogram
system.tol2bus.snoop_fanout::3                      0      0.00%    100.00% # Request fanout histogram
system.tol2bus.snoop_fanout::4                      0      0.00%    100.00% # Request fanout histogram
system.tol2bus.snoop_fanout::overflows              0      0.00%    100.00% # Request fanout histogram
system.tol2bus.snoop_fanout::min_value              0                       # Request fanout histogram
system.tol2bus.snoop_fanout::max_value              2                       # Request fanout histogram
system.tol2bus.snoop_fanout::total            1063620                       # Request fanout histogram
system.tol2bus.power_state.pwrStateResidencyTicks::UNDEFINED  64223529500                       # Cumulative time (in ticks) in various power states
system.tol2bus.reqLayer0.occupancy         2016314500                       # Layer occupancy (ticks)
system.tol2bus.reqLayer0.utilization              3.1                       # Layer utilization (%)
system.tol2bus.respLayer0.occupancy           9718939                       # Layer occupancy (ticks)
system.tol2bus.respLayer0.utilization             0.0                       # Layer utilization (%)
system.tol2bus.respLayer1.occupancy        1503275990                       # Layer occupancy (ticks)
system.tol2bus.respLayer1.utilization             2.3                       # Layer utilization (%)
system.voltage_domain.voltage                       1                       # Voltage in Volts

---------- End Simulation Statistics   ----------
