
---------- Begin Simulation Statistics ----------
final_tick                                64639084500                       # Number of ticks from beginning of simulation (restored from checkpoints and never reset)
host_mem_usage                               67465344                       # Number of bytes of host memory used
host_seconds                                  1802.61                       # Real time elapsed on the host
host_tick_rate                               35858549                       # Simulator tick rate (ticks/s)
sim_freq                                 1000000000000                       # Frequency of simulated ticks
sim_seconds                                  0.064639                       # Number of seconds simulated
sim_ticks                                 64639084500                       # Number of ticks simulated
system.cpu.cc_regfile_reads                 175630457                       # number of cc regfile reads
system.cpu.cc_regfile_writes                171514461                       # number of cc regfile writes
system.cpu.committedInsts::0                 99985095                       # Number of Instructions Simulated
system.cpu.committedInsts::1                100000000                       # Number of Instructions Simulated
system.cpu.committedInsts::total            199985095                       # Number of Instructions Simulated
system.cpu.committedOps::0                  155205926                       # Number of Ops (including micro ops) Simulated
system.cpu.committedOps::1                  155229019                       # Number of Ops (including micro ops) Simulated
system.cpu.committedOps::total              310434945                       # Number of Ops (including micro ops) Simulated
system.cpu.cpi::0                            1.292974                       # CPI: Cycles Per Instruction
system.cpu.cpi::1                            1.292782                       # CPI: Cycles Per Instruction
system.cpu.cpi_total                         0.646439                       # CPI: Total CPI of All Threads
system.cpu.fp_regfile_reads                  14949662                       # number of floating regfile reads
system.cpu.fp_regfile_writes                 11464347                       # number of floating regfile writes
system.cpu.idleCycles                           98243                       # Total number of cycles that the CPU has spent unscheduled due to idling
system.cpu.iew.branchMispredicts              1336054                       # Number of branch mispredicts detected at execute
system.cpu.iew.exec_branches::0              12122003                       # Number of branches executed
system.cpu.iew.exec_branches::1              12134772                       # Number of branches executed
system.cpu.iew.exec_branches::total          24256775                       # Number of branches executed
system.cpu.iew.exec_nop::0                          0                       # number of nop insts executed
system.cpu.iew.exec_nop::1                          0                       # number of nop insts executed
system.cpu.iew.exec_nop::total                      0                       # number of nop insts executed
system.cpu.iew.exec_rate                     2.648394                       # Inst execution rate
system.cpu.iew.exec_refs::0                  44907352                       # number of memory reference insts executed
system.cpu.iew.exec_refs::1                  44931481                       # number of memory reference insts executed
system.cpu.iew.exec_refs::total              89838833                       # number of memory reference insts executed
system.cpu.iew.exec_stores::0                13768443                       # Number of stores executed
system.cpu.iew.exec_stores::1                13774987                       # Number of stores executed
system.cpu.iew.exec_stores::total            27543430                       # Number of stores executed
system.cpu.iew.exec_swp::0                          0                       # number of swp insts executed
system.cpu.iew.exec_swp::1                          0                       # number of swp insts executed
system.cpu.iew.exec_swp::total                      0                       # number of swp insts executed
system.cpu.iew.iewBlockCycles                10784640                       # Number of cycles IEW is blocking
system.cpu.iew.iewDispLoadInsts              67918527                       # Number of dispatched load instructions
system.cpu.iew.iewDispNonSpecInsts               1833                       # Number of dispatched non-speculative instructions
system.cpu.iew.iewDispSquashedInsts                 0                       # Number of squashed instructions skipped by dispatch
system.cpu.iew.iewDispStoreInsts             28837692                       # Number of dispatched store instructions
system.cpu.iew.iewDispatchedInsts           368823633                       # Number of instructions dispatched to IQ
system.cpu.iew.iewExecLoadInsts::0           31138909                       # Number of load instructions executed
system.cpu.iew.iewExecLoadInsts::1           31156494                       # Number of load instructions executed
system.cpu.iew.iewExecLoadInsts::total       62295403                       # Number of load instructions executed
system.cpu.iew.iewExecSquashedInsts           2299532                       # Number of squashed instructions skipped in execute
system.cpu.iew.iewExecutedInsts             342379501                       # Number of executed instructions
system.cpu.iew.iewIQFullEvents                  65340                       # Number of times the IQ has become full, causing a stall
system.cpu.iew.iewIdleCycles                        0                       # Number of cycles IEW is idle
system.cpu.iew.iewLSQFullEvents                 81946                       # Number of times the LSQ has become full, causing a stall
system.cpu.iew.iewSquashCycles                1245796                       # Number of cycles IEW is squashing
system.cpu.iew.iewUnblockCycles                213695                       # Number of cycles IEW is unblocking
system.cpu.iew.memOrderViolationEvents           1730                       # Number of memory order violations
system.cpu.iew.predictedNotTakenIncorrect       616759                       # Number of branches that were predicted not taken incorrectly
system.cpu.iew.predictedTakenIncorrect         719295                       # Number of branches that were predicted taken incorrectly
system.cpu.iew.wb_consumers::0              234648227                       # num instructions consuming a value
system.cpu.iew.wb_consumers::1              234849215                       # num instructions consuming a value
system.cpu.iew.wb_consumers::total          469497442                       # num instructions consuming a value
system.cpu.iew.wb_count::0                  170966550                       # cumulative count of insts written-back
system.cpu.iew.wb_count::1                  171109509                       # cumulative count of insts written-back
system.cpu.iew.wb_count::total              342076059                       # cumulative count of insts written-back
system.cpu.iew.wb_fanout::0                  0.555286                       # average fanout of values written-back
system.cpu.iew.wb_fanout::1                  0.555377                       # average fanout of values written-back
system.cpu.iew.wb_fanout::total              0.555331                       # average fanout of values written-back
system.cpu.iew.wb_producers::0              130296844                       # num instructions producing a value
system.cpu.iew.wb_producers::1              130429823                       # num instructions producing a value
system.cpu.iew.wb_producers::total          260726667                       # num instructions producing a value
system.cpu.iew.wb_rate::0                    1.322470                       # insts written-back per cycle
system.cpu.iew.wb_rate::1                    1.323576                       # insts written-back per cycle
system.cpu.iew.wb_rate::total                2.646047                       # insts written-back per cycle
system.cpu.iew.wb_sent::0                   170991078                       # cumulative count of insts sent to commit
system.cpu.iew.wb_sent::1                   171134020                       # cumulative count of insts sent to commit
system.cpu.iew.wb_sent::total               342125098                       # cumulative count of insts sent to commit
system.cpu.int_regfile_reads                584931123                       # number of integer regfile reads
system.cpu.int_regfile_writes               274345282                       # number of integer regfile writes
system.cpu.ipc::0                            0.773411                       # IPC: Instructions Per Cycle
system.cpu.ipc::1                            0.773526                       # IPC: Instructions Per Cycle
system.cpu.ipc_total                         1.546936                       # IPC: Total IPC of All Threads
system.cpu.iq.FU_type_0::No_OpClass           2367675      1.37%      1.37% # Type of FU issued
system.cpu.iq.FU_type_0::IntAlu             119304291     69.00%     70.37% # Type of FU issued
system.cpu.iq.FU_type_0::IntMult                   57      0.00%     70.37% # Type of FU issued
system.cpu.iq.FU_type_0::IntDiv                 40834      0.02%     70.40% # Type of FU issued
system.cpu.iq.FU_type_0::FloatAdd             1680189      0.97%     71.37% # Type of FU issued
system.cpu.iq.FU_type_0::FloatCmp                   0      0.00%     71.37% # Type of FU issued
system.cpu.iq.FU_type_0::FloatCvt                1335      0.00%     71.37% # Type of FU issued
system.cpu.iq.FU_type_0::FloatMult                  0      0.00%     71.37% # Type of FU issued
system.cpu.iq.FU_type_0::FloatMultAcc               0      0.00%     71.37% # Type of FU issued
system.cpu.iq.FU_type_0::FloatDiv                   0      0.00%     71.37% # Type of FU issued
system.cpu.iq.FU_type_0::FloatMisc                  0      0.00%     71.37% # Type of FU issued
system.cpu.iq.FU_type_0::FloatSqrt                  0      0.00%     71.37% # Type of FU issued
system.cpu.iq.FU_type_0::SimdAdd                 8681      0.01%     71.37% # Type of FU issued
system.cpu.iq.FU_type_0::SimdAddAcc                 0      0.00%     71.37% # Type of FU issued
system.cpu.iq.FU_type_0::SimdAlu               107799      0.06%     71.44% # Type of FU issued
system.cpu.iq.FU_type_0::SimdCmp                    6      0.00%     71.44% # Type of FU issued
system.cpu.iq.FU_type_0::SimdCvt                18967      0.01%     71.45% # Type of FU issued
system.cpu.iq.FU_type_0::SimdMisc             3356267      1.94%     73.39% # Type of FU issued
system.cpu.iq.FU_type_0::SimdMult                   0      0.00%     73.39% # Type of FU issued
system.cpu.iq.FU_type_0::SimdMultAcc                0      0.00%     73.39% # Type of FU issued
system.cpu.iq.FU_type_0::SimdShift               2362      0.00%     73.39% # Type of FU issued
system.cpu.iq.FU_type_0::SimdShiftAcc               0      0.00%     73.39% # Type of FU issued
system.cpu.iq.FU_type_0::SimdDiv                    0      0.00%     73.39% # Type of FU issued
system.cpu.iq.FU_type_0::SimdSqrt                   0      0.00%     73.39% # Type of FU issued
system.cpu.iq.FU_type_0::SimdFloatAdd               0      0.00%     73.39% # Type of FU issued
system.cpu.iq.FU_type_0::SimdFloatAlu               0      0.00%     73.39% # Type of FU issued
system.cpu.iq.FU_type_0::SimdFloatCmp               0      0.00%     73.39% # Type of FU issued
system.cpu.iq.FU_type_0::SimdFloatCvt           43069      0.02%     73.41% # Type of FU issued
system.cpu.iq.FU_type_0::SimdFloatDiv               0      0.00%     73.41% # Type of FU issued
system.cpu.iq.FU_type_0::SimdFloatMisc              0      0.00%     73.41% # Type of FU issued
system.cpu.iq.FU_type_0::SimdFloatMult          24010      0.01%     73.43% # Type of FU issued
system.cpu.iq.FU_type_0::SimdFloatMultAcc            0      0.00%     73.43% # Type of FU issued
system.cpu.iq.FU_type_0::SimdFloatSqrt              0      0.00%     73.43% # Type of FU issued
system.cpu.iq.FU_type_0::SimdReduceAdd              0      0.00%     73.43% # Type of FU issued
system.cpu.iq.FU_type_0::SimdReduceAlu              0      0.00%     73.43% # Type of FU issued
system.cpu.iq.FU_type_0::SimdReduceCmp              0      0.00%     73.43% # Type of FU issued
system.cpu.iq.FU_type_0::SimdFloatReduceAdd            0      0.00%     73.43% # Type of FU issued
system.cpu.iq.FU_type_0::SimdFloatReduceCmp            0      0.00%     73.43% # Type of FU issued
system.cpu.iq.FU_type_0::SimdAes                    0      0.00%     73.43% # Type of FU issued
system.cpu.iq.FU_type_0::SimdAesMix                 0      0.00%     73.43% # Type of FU issued
system.cpu.iq.FU_type_0::SimdSha1Hash               0      0.00%     73.43% # Type of FU issued
system.cpu.iq.FU_type_0::SimdSha1Hash2              0      0.00%     73.43% # Type of FU issued
system.cpu.iq.FU_type_0::SimdSha256Hash             0      0.00%     73.43% # Type of FU issued
system.cpu.iq.FU_type_0::SimdSha256Hash2            0      0.00%     73.43% # Type of FU issued
system.cpu.iq.FU_type_0::SimdShaSigma2              0      0.00%     73.43% # Type of FU issued
system.cpu.iq.FU_type_0::SimdShaSigma3              0      0.00%     73.43% # Type of FU issued
system.cpu.iq.FU_type_0::SimdPredAlu                0      0.00%     73.43% # Type of FU issued
system.cpu.iq.FU_type_0::MemRead             31914021     18.46%     91.89% # Type of FU issued
system.cpu.iq.FU_type_0::MemWrite            12752732      7.38%     99.26% # Type of FU issued
system.cpu.iq.FU_type_0::FloatMemRead          119647      0.07%     99.33% # Type of FU issued
system.cpu.iq.FU_type_0::FloatMemWrite        1157094      0.67%    100.00% # Type of FU issued
system.cpu.iq.FU_type_0::IprAccess                  0      0.00%    100.00% # Type of FU issued
system.cpu.iq.FU_type_0::InstPrefetch               0      0.00%    100.00% # Type of FU issued
system.cpu.iq.FU_type_0::total              172899036                       # Type of FU issued
system.cpu.iq.FU_type_1::No_OpClass           2371105      1.37%      1.37% # Type of FU issued
system.cpu.iq.FU_type_1::IntAlu             119421030     69.02%     70.39% # Type of FU issued
system.cpu.iq.FU_type_1::IntMult                   55      0.00%     70.39% # Type of FU issued
system.cpu.iq.FU_type_1::IntDiv                 40788      0.02%     70.41% # Type of FU issued
system.cpu.iq.FU_type_1::FloatAdd             1680480      0.97%     71.38% # Type of FU issued
system.cpu.iq.FU_type_1::FloatCmp                   0      0.00%     71.38% # Type of FU issued
system.cpu.iq.FU_type_1::FloatCvt                1320      0.00%     71.38% # Type of FU issued
system.cpu.iq.FU_type_1::FloatMult                  0      0.00%     71.38% # Type of FU issued
system.cpu.iq.FU_type_1::FloatMultAcc               0      0.00%     71.38% # Type of FU issued
system.cpu.iq.FU_type_1::FloatDiv                   0      0.00%     71.38% # Type of FU issued
system.cpu.iq.FU_type_1::FloatMisc                  0      0.00%     71.38% # Type of FU issued
system.cpu.iq.FU_type_1::FloatSqrt                  0      0.00%     71.38% # Type of FU issued
system.cpu.iq.FU_type_1::SimdAdd                 8716      0.01%     71.39% # Type of FU issued
system.cpu.iq.FU_type_1::SimdAddAcc                 0      0.00%     71.39% # Type of FU issued
system.cpu.iq.FU_type_1::SimdAlu               107240      0.06%     71.45% # Type of FU issued
system.cpu.iq.FU_type_1::SimdCmp                    6      0.00%     71.45% # Type of FU issued
system.cpu.iq.FU_type_1::SimdCvt                19032      0.01%     71.46% # Type of FU issued
system.cpu.iq.FU_type_1::SimdMisc             3356781      1.94%     73.40% # Type of FU issued
system.cpu.iq.FU_type_1::SimdMult                   0      0.00%     73.40% # Type of FU issued
system.cpu.iq.FU_type_1::SimdMultAcc                0      0.00%     73.40% # Type of FU issued
system.cpu.iq.FU_type_1::SimdShift               2370      0.00%     73.40% # Type of FU issued
system.cpu.iq.FU_type_1::SimdShiftAcc               0      0.00%     73.40% # Type of FU issued
system.cpu.iq.FU_type_1::SimdDiv                    0      0.00%     73.40% # Type of FU issued
system.cpu.iq.FU_type_1::SimdSqrt                   0      0.00%     73.40% # Type of FU issued
system.cpu.iq.FU_type_1::SimdFloatAdd               0      0.00%     73.40% # Type of FU issued
system.cpu.iq.FU_type_1::SimdFloatAlu               0      0.00%     73.40% # Type of FU issued
system.cpu.iq.FU_type_1::SimdFloatCmp               0      0.00%     73.40% # Type of FU issued
system.cpu.iq.FU_type_1::SimdFloatCvt           42811      0.02%     73.43% # Type of FU issued
system.cpu.iq.FU_type_1::SimdFloatDiv               0      0.00%     73.43% # Type of FU issued
system.cpu.iq.FU_type_1::SimdFloatMisc              0      0.00%     73.43% # Type of FU issued
system.cpu.iq.FU_type_1::SimdFloatMult          23875      0.01%     73.44% # Type of FU issued
system.cpu.iq.FU_type_1::SimdFloatMultAcc            0      0.00%     73.44% # Type of FU issued
system.cpu.iq.FU_type_1::SimdFloatSqrt              0      0.00%     73.44% # Type of FU issued
system.cpu.iq.FU_type_1::SimdReduceAdd              0      0.00%     73.44% # Type of FU issued
system.cpu.iq.FU_type_1::SimdReduceAlu              0      0.00%     73.44% # Type of FU issued
system.cpu.iq.FU_type_1::SimdReduceCmp              0      0.00%     73.44% # Type of FU issued
system.cpu.iq.FU_type_1::SimdFloatReduceAdd            0      0.00%     73.44% # Type of FU issued
system.cpu.iq.FU_type_1::SimdFloatReduceCmp            0      0.00%     73.44% # Type of FU issued
system.cpu.iq.FU_type_1::SimdAes                    0      0.00%     73.44% # Type of FU issued
system.cpu.iq.FU_type_1::SimdAesMix                 0      0.00%     73.44% # Type of FU issued
system.cpu.iq.FU_type_1::SimdSha1Hash               0      0.00%     73.44% # Type of FU issued
system.cpu.iq.FU_type_1::SimdSha1Hash2              0      0.00%     73.44% # Type of FU issued
system.cpu.iq.FU_type_1::SimdSha256Hash             0      0.00%     73.44% # Type of FU issued
system.cpu.iq.FU_type_1::SimdSha256Hash2            0      0.00%     73.44% # Type of FU issued
system.cpu.iq.FU_type_1::SimdShaSigma2              0      0.00%     73.44% # Type of FU issued
system.cpu.iq.FU_type_1::SimdShaSigma3              0      0.00%     73.44% # Type of FU issued
system.cpu.iq.FU_type_1::SimdPredAlu                0      0.00%     73.44% # Type of FU issued
system.cpu.iq.FU_type_1::MemRead             31922487     18.45%     91.89% # Type of FU issued
system.cpu.iq.FU_type_1::MemWrite            12756541      7.37%     99.26% # Type of FU issued
system.cpu.iq.FU_type_1::FloatMemRead          118731      0.07%     99.33% # Type of FU issued
system.cpu.iq.FU_type_1::FloatMemWrite        1156576      0.67%    100.00% # Type of FU issued
system.cpu.iq.FU_type_1::IprAccess                  0      0.00%    100.00% # Type of FU issued
system.cpu.iq.FU_type_1::InstPrefetch               0      0.00%    100.00% # Type of FU issued
system.cpu.iq.FU_type_1::total              173029944                       # Type of FU issued
system.cpu.iq.FU_type::total                345928980      0.00%      0.00% # Type of FU issued
system.cpu.iq.fp_alu_accesses                26494595                       # Number of floating point alu accesses
system.cpu.iq.fp_inst_queue_reads            40415681                       # Number of floating instruction queue reads
system.cpu.iq.fp_inst_queue_wakeup_accesses     13743129                       # Number of floating instruction queue wakeup accesses
system.cpu.iq.fp_inst_queue_writes           14701468                       # Number of floating instruction queue writes
system.cpu.iq.fu_busy_cnt::0                122846869                       # FU busy when requested
system.cpu.iq.fu_busy_cnt::1                122977357                       # FU busy when requested
system.cpu.iq.fu_busy_cnt::total            245824226                       # FU busy when requested
system.cpu.iq.fu_busy_rate::0                0.355122                       # FU busy rate (busy events/executed inst)
system.cpu.iq.fu_busy_rate::1                0.355499                       # FU busy rate (busy events/executed inst)
system.cpu.iq.fu_busy_rate::total            0.710621                       # FU busy rate (busy events/executed inst)
system.cpu.iq.fu_full::No_OpClass                   0      0.00%      0.00% # attempts to use FU when none available
system.cpu.iq.fu_full::IntAlu               119346935     48.55%     48.55% # attempts to use FU when none available
system.cpu.iq.fu_full::IntMult                     47      0.00%     48.55% # attempts to use FU when none available
system.cpu.iq.fu_full::IntDiv                  381617      0.16%     48.70% # attempts to use FU when none available
system.cpu.iq.fu_full::FloatAdd               1441994      0.59%     49.29% # attempts to use FU when none available
system.cpu.iq.fu_full::FloatCmp                     0      0.00%     49.29% # attempts to use FU when none available
system.cpu.iq.fu_full::FloatCvt                  1907      0.00%     49.29% # attempts to use FU when none available
system.cpu.iq.fu_full::FloatMult                    0      0.00%     49.29% # attempts to use FU when none available
system.cpu.iq.fu_full::FloatMultAcc                 0      0.00%     49.29% # attempts to use FU when none available
system.cpu.iq.fu_full::FloatDiv                     0      0.00%     49.29% # attempts to use FU when none available
system.cpu.iq.fu_full::FloatMisc                    0      0.00%     49.29% # attempts to use FU when none available
system.cpu.iq.fu_full::FloatSqrt                    0      0.00%     49.29% # attempts to use FU when none available
system.cpu.iq.fu_full::SimdAdd                  15501      0.01%     49.30% # attempts to use FU when none available
system.cpu.iq.fu_full::SimdAddAcc                   0      0.00%     49.30% # attempts to use FU when none available
system.cpu.iq.fu_full::SimdAlu                  70681      0.03%     49.33% # attempts to use FU when none available
system.cpu.iq.fu_full::SimdCmp                      4      0.00%     49.33% # attempts to use FU when none available
system.cpu.iq.fu_full::SimdCvt                  32857      0.01%     49.34% # attempts to use FU when none available
system.cpu.iq.fu_full::SimdMisc               4621888      1.88%     51.22% # attempts to use FU when none available
system.cpu.iq.fu_full::SimdMult                     0      0.00%     51.22% # attempts to use FU when none available
system.cpu.iq.fu_full::SimdMultAcc                  0      0.00%     51.22% # attempts to use FU when none available
system.cpu.iq.fu_full::SimdShift                 3665      0.00%     51.22% # attempts to use FU when none available
system.cpu.iq.fu_full::SimdShiftAcc                 0      0.00%     51.22% # attempts to use FU when none available
system.cpu.iq.fu_full::SimdDiv                      0      0.00%     51.22% # attempts to use FU when none available
system.cpu.iq.fu_full::SimdSqrt                     0      0.00%     51.22% # attempts to use FU when none available
system.cpu.iq.fu_full::SimdFloatAdd                 0      0.00%     51.22% # attempts to use FU when none available
system.cpu.iq.fu_full::SimdFloatAlu                 0      0.00%     51.22% # attempts to use FU when none available
system.cpu.iq.fu_full::SimdFloatCmp                 0      0.00%     51.22% # attempts to use FU when none available
system.cpu.iq.fu_full::SimdFloatCvt             76194      0.03%     51.25% # attempts to use FU when none available
system.cpu.iq.fu_full::SimdFloatDiv                 0      0.00%     51.25% # attempts to use FU when none available
system.cpu.iq.fu_full::SimdFloatMisc                0      0.00%     51.25% # attempts to use FU when none available
system.cpu.iq.fu_full::SimdFloatMult            53246      0.02%     51.28% # attempts to use FU when none available
system.cpu.iq.fu_full::SimdFloatMultAcc             0      0.00%     51.28% # attempts to use FU when none available
system.cpu.iq.fu_full::SimdFloatSqrt                0      0.00%     51.28% # attempts to use FU when none available
system.cpu.iq.fu_full::SimdReduceAdd                0      0.00%     51.28% # attempts to use FU when none available
system.cpu.iq.fu_full::SimdReduceAlu                0      0.00%     51.28% # attempts to use FU when none available
system.cpu.iq.fu_full::SimdReduceCmp                0      0.00%     51.28% # attempts to use FU when none available
system.cpu.iq.fu_full::SimdFloatReduceAdd            0      0.00%     51.28% # attempts to use FU when none available
system.cpu.iq.fu_full::SimdFloatReduceCmp            0      0.00%     51.28% # attempts to use FU when none available
system.cpu.iq.fu_full::SimdAes                      0      0.00%     51.28% # attempts to use FU when none available
system.cpu.iq.fu_full::SimdAesMix                   0      0.00%     51.28% # attempts to use FU when none available
system.cpu.iq.fu_full::SimdSha1Hash                 0      0.00%     51.28% # attempts to use FU when none available
system.cpu.iq.fu_full::SimdSha1Hash2                0      0.00%     51.28% # attempts to use FU when none available
system.cpu.iq.fu_full::SimdSha256Hash               0      0.00%     51.28% # attempts to use FU when none available
system.cpu.iq.fu_full::SimdSha256Hash2              0      0.00%     51.28% # attempts to use FU when none available
system.cpu.iq.fu_full::SimdShaSigma2                0      0.00%     51.28% # attempts to use FU when none available
system.cpu.iq.fu_full::SimdShaSigma3                0      0.00%     51.28% # attempts to use FU when none available
system.cpu.iq.fu_full::SimdPredAlu                  0      0.00%     51.28% # attempts to use FU when none available
system.cpu.iq.fu_full::MemRead               85866757     34.93%     86.21% # attempts to use FU when none available
system.cpu.iq.fu_full::MemWrite              33910933     13.79%    100.00% # attempts to use FU when none available
system.cpu.iq.fu_full::FloatMemRead                 0      0.00%    100.00% # attempts to use FU when none available
system.cpu.iq.fu_full::FloatMemWrite                0      0.00%    100.00% # attempts to use FU when none available
system.cpu.iq.fu_full::IprAccess                    0      0.00%    100.00% # attempts to use FU when none available
system.cpu.iq.fu_full::InstPrefetch                 0      0.00%    100.00% # attempts to use FU when none available
system.cpu.iq.int_alu_accesses              806119492                       # Number of integer alu accesses
system.cpu.iq.int_inst_queue_reads         1275569488                       # Number of integer instruction queue reads
system.cpu.iq.int_inst_queue_wakeup_accesses    328332930                       # Number of integer instruction queue wakeup accesses
system.cpu.iq.int_inst_queue_writes         412512450                       # Number of integer instruction queue writes
system.cpu.iq.iqInstsAdded                  368820964                       # Number of instructions added to the IQ (excludes non-spec)
system.cpu.iq.iqInstsIssued                 345928980                       # Number of instructions issued
system.cpu.iq.iqNonSpecInstsAdded                2669                       # Number of non-speculative instructions added to the IQ
system.cpu.iq.iqSquashedInstsExamined        58388555                       # Number of squashed instructions iterated over during squash; mainly for profiling
system.cpu.iq.iqSquashedInstsIssued           3523399                       # Number of squashed instructions issued
system.cpu.iq.iqSquashedNonSpecRemoved            263                       # Number of squashed non-spec instructions that were removed
system.cpu.iq.iqSquashedOperandsExamined     91952404                       # Number of squashed operands that are examined and possibly removed from graph
system.cpu.iq.issued_per_cycle::samples     129179927                       # Number of insts issued each cycle
system.cpu.iq.issued_per_cycle::mean         2.677885                       # Number of insts issued each cycle
system.cpu.iq.issued_per_cycle::stdev        1.687763                       # Number of insts issued each cycle
system.cpu.iq.issued_per_cycle::underflows            0      0.00%      0.00% # Number of insts issued each cycle
system.cpu.iq.issued_per_cycle::0            15533451     12.02%     12.02% # Number of insts issued each cycle
system.cpu.iq.issued_per_cycle::1            17278022     13.38%     25.40% # Number of insts issued each cycle
system.cpu.iq.issued_per_cycle::2            31265756     24.20%     49.60% # Number of insts issued each cycle
system.cpu.iq.issued_per_cycle::3            21635379     16.75%     66.35% # Number of insts issued each cycle
system.cpu.iq.issued_per_cycle::4            22809287     17.66%     84.01% # Number of insts issued each cycle
system.cpu.iq.issued_per_cycle::5            15023931     11.63%     95.64% # Number of insts issued each cycle
system.cpu.iq.issued_per_cycle::6             4694313      3.63%     99.27% # Number of insts issued each cycle
system.cpu.iq.issued_per_cycle::7              827676      0.64%     99.91% # Number of insts issued each cycle
system.cpu.iq.issued_per_cycle::8              112112      0.09%    100.00% # Number of insts issued each cycle
system.cpu.iq.issued_per_cycle::overflows            0      0.00%    100.00% # Number of insts issued each cycle
system.cpu.iq.issued_per_cycle::min_value            0                       # Number of insts issued each cycle
system.cpu.iq.issued_per_cycle::max_value            8                       # Number of insts issued each cycle
system.cpu.iq.issued_per_cycle::total       129179927                       # Number of insts issued each cycle
system.cpu.iq.rate                           2.675850                       # Inst issue rate
system.cpu.iq.vec_alu_accesses                      0                       # Number of vector alu accesses
system.cpu.iq.vec_inst_queue_reads                  0                       # Number of vector instruction queue reads
system.cpu.iq.vec_inst_queue_wakeup_accesses            0                       # Number of vector instruction queue wakeup accesses
system.cpu.iq.vec_inst_queue_writes                 0                       # Number of vector instruction queue writes
system.cpu.memDep0.conflictingLoads           2356321                       # Number of conflicting loads.
system.cpu.memDep0.conflictingStores           561024                       # Number of conflicting stores.
system.cpu.memDep0.insertedLoads             33942463                       # Number of loads inserted to the mem dependence unit.
system.cpu.memDep0.insertedStores            14415261                       # Number of stores inserted to the mem dependence unit.
system.cpu.memDep1.conflictingLoads           2361647                       # Number of conflicting loads.
system.cpu.memDep1.conflictingStores           548270                       # Number of conflicting stores.
system.cpu.memDep1.insertedLoads             33976064                       # Number of loads inserted to the mem dependence unit.
system.cpu.memDep1.insertedStores            14422431                       # Number of stores inserted to the mem dependence unit.
system.cpu.misc_regfile_reads               140571349                       # number of misc regfile reads
system.cpu.misc_regfile_writes                   1404                       # number of misc regfile writes
system.cpu.numCycles                        129278170                       # number of cpu cycles simulated
system.cpu.numWorkItemsCompleted                    0                       # number of work items this cpu completed
system.cpu.numWorkItemsStarted                      0                       # number of work items this cpu started
system.cpu.timesIdled                            1736                       # Number of times that the entire CPU went into an idle state and unscheduled itself
system.cpu.workload0.numSyscalls                   85                       # Number of system calls
system.cpu.workload1.numSyscalls                   85                       # Number of system calls
system.membus.snoop_filter.hit_multi_requests            0                       # Number of requests hitting in the snoop filter with multiple (>1) holders of the requested data.
system.membus.snoop_filter.hit_multi_snoops            0                       # Number of snoops hitting in the snoop filter with multiple (>1) holders of the requested data.
system.membus.snoop_filter.hit_single_requests        51475                       # Number of requests hitting in the snoop filter with a single holder of the requested data.
system.membus.snoop_filter.hit_single_snoops            0                       # Number of snoops hitting in the snoop filter with a single holder of the requested data.
system.membus.snoop_filter.tot_requests        149036                       # Total number of requests made to the snoop filter.
system.membus.snoop_filter.tot_snoops               0                       # Total number of snoops made to the snoop filter.
system.tol2bus.snoop_filter.hit_multi_requests          472                       # Number of requests hitting in the snoop filter with multiple (>1) holders of the requested data.
system.tol2bus.snoop_filter.hit_multi_snoops            0                       # Number of snoops hitting in the snoop filter with multiple (>1) holders of the requested data.
system.tol2bus.snoop_filter.hit_single_requests      1005215                       # Number of requests hitting in the snoop filter with a single holder of the requested data.
system.tol2bus.snoop_filter.hit_single_snoops          220                       # Number of snoops hitting in the snoop filter with a single holder of the requested data.
system.tol2bus.snoop_filter.tot_requests      2011072                       # Total number of requests made to the snoop filter.
system.tol2bus.snoop_filter.tot_snoops            220                       # Total number of snoops made to the snoop filter.
sim_insts                                   199985095                       # Number of instructions simulated
sim_ops                                     310434945                       # Number of ops (including micro ops) simulated
host_inst_rate                                 110942                       # Simulator instruction rate (inst/s)
host_op_rate                                   172214                       # Simulator op (including micro ops) rate (op/s)
system.clk_domain.clock                          1000                       # Clock period in ticks
system.cpu.branchPred.lookups                35719258                       # Number of BP lookups
system.cpu.branchPred.condPredicted          23841499                       # Number of conditional branches predicted
system.cpu.branchPred.condIncorrect           1253509                       # Number of conditional branches incorrect
system.cpu.branchPred.BTBLookups             18496334                       # Number of BTB lookups
system.cpu.branchPred.BTBHits                18420594                       # Number of BTB hits
system.cpu.branchPred.BTBHitPct             99.590513                       # BTB Hit Percentage
system.cpu.branchPred.RASUsed                 5386287                       # Number of times the RAS was used to get a target.
system.cpu.branchPred.RASIncorrect                 32                       # Number of incorrect RAS predictions.
system.cpu.branchPred.indirectLookups           39719                       # Number of indirect predictor lookups.
system.cpu.branchPred.indirectHits              24330                       # Number of indirect target hits.
system.cpu.branchPred.indirectMisses            15389                       # Number of indirect misses.
system.cpu.branchPred.indirectMispredicted         3276                       # Number of mispredicted indirect branches.
system.cpu.branchPred.power_state.pwrStateResidencyTicks::UNDEFINED  64639084500                       # Cumulative time (in ticks) in various power states
system.cpu.commit.commitSquashedInsts        56250190                       # The number of squashed insts skipped by commit
system.cpu.commit.commitNonSpecStalls            2406                       # The number of times commit has been forced to stall to communicate backwards
system.cpu.commit.branchMispredicts           1242138                       # The number of times a branch was mispredicted
system.cpu.commit.numCommittedDist::samples    128596803                       # Number of insts commited each cycle
system.cpu.commit.numCommittedDist::mean     2.414018                       # Number of insts commited each cycle
system.cpu.commit.numCommittedDist::stdev     2.576456                       # Number of insts commited each cycle
system.cpu.commit.numCommittedDist::underflows            0      0.00%      0.00% # Number of insts commited each cycle
system.cpu.commit.numCommittedDist::0        36226796     28.17%     28.17% # Number of insts commited each cycle
system.cpu.commit.numCommittedDist::1        25459623     19.80%     47.97% # Number of insts commited each cycle
system.cpu.commit.numCommittedDist::2        24095509     18.74%     66.71% # Number of insts commited each cycle
system.cpu.commit.numCommittedDist::3        10474568      8.15%     74.85% # Number of insts commited each cycle
system.cpu.commit.numCommittedDist::4         5923774      4.61%     79.46% # Number of insts commited each cycle
system.cpu.commit.numCommittedDist::5         6244231      4.86%     84.31% # Number of insts commited each cycle
system.cpu.commit.numCommittedDist::6         4510777      3.51%     87.82% # Number of insts commited each cycle
system.cpu.commit.numCommittedDist::7         1912513      1.49%     89.31% # Number of insts commited each cycle
system.cpu.commit.numCommittedDist::8        13749012     10.69%    100.00% # Number of insts commited each cycle
system.cpu.commit.numCommittedDist::overflows            0      0.00%    100.00% # Number of insts commited each cycle
system.cpu.commit.numCommittedDist::min_value            0                       # Number of insts commited each cycle
system.cpu.commit.numCommittedDist::max_value            8                       # Number of insts commited each cycle
system.cpu.commit.numCommittedDist::total    128596803                       # Number of insts commited each cycle
system.cpu.commit.instsCommitted::0          99985095                       # Number of instructions committed
system.cpu.commit.instsCommitted::1         100000000                       # Number of instructions committed
system.cpu.commit.instsCommitted::total     199985095                       # Number of instructions committed
system.cpu.commit.opsCommitted::0           155205926                       # Number of ops (including micro ops) committed
system.cpu.commit.opsCommitted::1           155229019                       # Number of ops (including micro ops) committed
system.cpu.commit.opsCommitted::total       310434945                       # Number of ops (including micro ops) committed
system.cpu.commit.memRefs::0                 42782048                       # Number of memory references committed
system.cpu.commit.memRefs::1                 42788460                       # Number of memory references committed
system.cpu.commit.memRefs::total             85570508                       # Number of memory references committed
system.cpu.commit.loads::0                   29445438                       # Number of loads committed
system.cpu.commit.loads::1                   29449883                       # Number of loads committed
system.cpu.commit.loads::total               58895321                       # Number of loads committed
system.cpu.commit.amos::0                           0                       # Number of atomic instructions committed
system.cpu.commit.amos::1                           0                       # Number of atomic instructions committed
system.cpu.commit.amos::total                       0                       # Number of atomic instructions committed
system.cpu.commit.membars::0                      334                       # Number of memory barriers committed
system.cpu.commit.membars::1                      334                       # Number of memory barriers committed
system.cpu.commit.membars::total                  668                       # Number of memory barriers committed
system.cpu.commit.branches::0                10776891                       # Number of branches committed
system.cpu.commit.branches::1                10778507                       # Number of branches committed
system.cpu.commit.branches::total            21555398                       # Number of branches committed
system.cpu.commit.vector::0                         0                       # Number of committed Vector instructions.
system.cpu.commit.vector::1                         0                       # Number of committed Vector instructions.
system.cpu.commit.vector::total                     0                       # Number of committed Vector instructions.
system.cpu.commit.floating::0                 6694880                       # Number of committed floating point instructions.
system.cpu.commit.floating::1                 6695840                       # Number of committed floating point instructions.
system.cpu.commit.floating::total            13390720                       # Number of committed floating point instructions.
system.cpu.commit.integer::0                149434417                       # Number of committed integer instructions.
system.cpu.commit.integer::1                149456646                       # Number of committed integer instructions.
system.cpu.commit.integer::total            298891063                       # Number of committed integer instructions.
system.cpu.commit.functionCalls::0            1895704                       # Number of function calls committed.
system.cpu.commit.functionCalls::1            1895992                       # Number of function calls committed.
system.cpu.commit.functionCalls::total        3791696                       # Number of function calls committed.
system.cpu.commit.committedInstType_0::No_OpClass      1916217      1.23%      1.23% # Class of committed instruction
system.cpu.commit.committedInstType_0::IntAlu    105344997     67.87%     69.11% # Class of committed instruction
system.cpu.commit.committedInstType_0::IntMult           38      0.00%     69.11% # Class of committed instruction
system.cpu.commit.committedInstType_0::IntDiv        40525      0.03%     69.14% # Class of committed instruction
system.cpu.commit.committedInstType_0::FloatAdd      1673959      1.08%     70.21% # Class of committed instruction
system.cpu.commit.committedInstType_0::FloatCmp            0      0.00%     70.21% # Class of committed instruction
system.cpu.commit.committedInstType_0::FloatCvt         1248      0.00%     70.21% # Class of committed instruction
system.cpu.commit.committedInstType_0::FloatMult            0      0.00%     70.21% # Class of committed instruction
system.cpu.commit.committedInstType_0::FloatMultAcc            0      0.00%     70.21% # Class of committed instruction
system.cpu.commit.committedInstType_0::FloatDiv            0      0.00%     70.21% # Class of committed instruction
system.cpu.commit.committedInstType_0::FloatMisc            0      0.00%     70.21% # Class of committed instruction
system.cpu.commit.committedInstType_0::FloatSqrt            0      0.00%     70.21% # Class of committed instruction
system.cpu.commit.committedInstType_0::SimdAdd         7936      0.01%     70.22% # Class of committed instruction
system.cpu.commit.committedInstType_0::SimdAddAcc            0      0.00%     70.22% # Class of committed instruction
system.cpu.commit.committedInstType_0::SimdAlu        35477      0.02%     70.24% # Class of committed instruction
system.cpu.commit.committedInstType_0::SimdCmp            6      0.00%     70.24% # Class of committed instruction
system.cpu.commit.committedInstType_0::SimdCvt        16318      0.01%     70.25% # Class of committed instruction
system.cpu.commit.committedInstType_0::SimdMisc      3353581      2.16%     72.41% # Class of committed instruction
system.cpu.commit.committedInstType_0::SimdMult            0      0.00%     72.41% # Class of committed instruction
system.cpu.commit.committedInstType_0::SimdMultAcc            0      0.00%     72.41% # Class of committed instruction
system.cpu.commit.committedInstType_0::SimdShift         2037      0.00%     72.41% # Class of committed instruction
system.cpu.commit.committedInstType_0::SimdShiftAcc            0      0.00%     72.41% # Class of committed instruction
system.cpu.commit.committedInstType_0::SimdDiv            0      0.00%     72.41% # Class of committed instruction
system.cpu.commit.committedInstType_0::SimdSqrt            0      0.00%     72.41% # Class of committed instruction
system.cpu.commit.committedInstType_0::SimdFloatAdd            0      0.00%     72.41% # Class of committed instruction
system.cpu.commit.committedInstType_0::SimdFloatAlu            0      0.00%     72.41% # Class of committed instruction
system.cpu.commit.committedInstType_0::SimdFloatCmp            0      0.00%     72.41% # Class of committed instruction
system.cpu.commit.committedInstType_0::SimdFloatCvt        21026      0.01%     72.43% # Class of committed instruction
system.cpu.commit.committedInstType_0::SimdFloatDiv            0      0.00%     72.43% # Class of committed instruction
system.cpu.commit.committedInstType_0::SimdFloatMisc            0      0.00%     72.43% # Class of committed instruction
system.cpu.commit.committedInstType_0::SimdFloatMult        10513      0.01%     72.44% # Class of committed instruction
system.cpu.commit.committedInstType_0::SimdFloatMultAcc            0      0.00%     72.44% # Class of committed instruction
system.cpu.commit.committedInstType_0::SimdFloatSqrt            0      0.00%     72.44% # Class of committed instruction
system.cpu.commit.committedInstType_0::SimdReduceAdd            0      0.00%     72.44% # Class of committed instruction
system.cpu.commit.committedInstType_0::SimdReduceAlu            0      0.00%     72.44% # Class of committed instruction
system.cpu.commit.committedInstType_0::SimdReduceCmp            0      0.00%     72.44% # Class of committed instruction
system.cpu.commit.committedInstType_0::SimdFloatReduceAdd            0      0.00%     72.44% # Class of committed instruction
system.cpu.commit.committedInstType_0::SimdFloatReduceCmp            0      0.00%     72.44% # Class of committed instruction
system.cpu.commit.committedInstType_0::SimdAes            0      0.00%     72.44% # Class of committed instruction
system.cpu.commit.committedInstType_0::SimdAesMix            0      0.00%     72.44% # Class of committed instruction
system.cpu.commit.committedInstType_0::SimdSha1Hash            0      0.00%     72.44% # Class of committed instruction
system.cpu.commit.committedInstType_0::SimdSha1Hash2            0      0.00%     72.44% # Class of committed instruction
system.cpu.commit.committedInstType_0::SimdSha256Hash            0      0.00%     72.44% # Class of committed instruction
system.cpu.commit.committedInstType_0::SimdSha256Hash2            0      0.00%     72.44% # Class of committed instruction
system.cpu.commit.committedInstType_0::SimdShaSigma2            0      0.00%     72.44% # Class of committed instruction
system.cpu.commit.committedInstType_0::SimdShaSigma3            0      0.00%     72.44% # Class of committed instruction
system.cpu.commit.committedInstType_0::SimdPredAlu            0      0.00%     72.44% # Class of committed instruction
system.cpu.commit.committedInstType_0::MemRead     29402843     18.94%     91.38% # Class of committed instruction
system.cpu.commit.committedInstType_0::MemWrite     12226160      7.88%     99.26% # Class of committed instruction
system.cpu.commit.committedInstType_0::FloatMemRead        42595      0.03%     99.28% # Class of committed instruction
system.cpu.commit.committedInstType_0::FloatMemWrite      1110450      0.72%    100.00% # Class of committed instruction
system.cpu.commit.committedInstType_0::IprAccess            0      0.00%    100.00% # Class of committed instruction
system.cpu.commit.committedInstType_0::InstPrefetch            0      0.00%    100.00% # Class of committed instruction
system.cpu.commit.committedInstType_0::total    155205926                       # Class of committed instruction
system.cpu.commit.committedInstType_1::No_OpClass      1916505      1.23%      1.23% # Class of committed instruction
system.cpu.commit.committedInstType_1::IntAlu    105360622     67.87%     69.11% # Class of committed instruction
system.cpu.commit.committedInstType_1::IntMult           38      0.00%     69.11% # Class of committed instruction
system.cpu.commit.committedInstType_1::IntDiv        40525      0.03%     69.14% # Class of committed instruction
system.cpu.commit.committedInstType_1::FloatAdd      1674215      1.08%     70.21% # Class of committed instruction
system.cpu.commit.committedInstType_1::FloatCmp            0      0.00%     70.21% # Class of committed instruction
system.cpu.commit.committedInstType_1::FloatCvt         1248      0.00%     70.21% # Class of committed instruction
system.cpu.commit.committedInstType_1::FloatMult            0      0.00%     70.21% # Class of committed instruction
system.cpu.commit.committedInstType_1::FloatMultAcc            0      0.00%     70.21% # Class of committed instruction
system.cpu.commit.committedInstType_1::FloatDiv            0      0.00%     70.21% # Class of committed instruction
system.cpu.commit.committedInstType_1::FloatMisc            0      0.00%     70.21% # Class of committed instruction
system.cpu.commit.committedInstType_1::FloatSqrt            0      0.00%     70.21% # Class of committed instruction
system.cpu.commit.committedInstType_1::SimdAdd         7936      0.01%     70.22% # Class of committed instruction
system.cpu.commit.committedInstType_1::SimdAddAcc            0      0.00%     70.22% # Class of committed instruction
system.cpu.commit.committedInstType_1::SimdAlu        35477      0.02%     70.24% # Class of committed instruction
system.cpu.commit.committedInstType_1::SimdCmp            6      0.00%     70.24% # Class of committed instruction
system.cpu.commit.committedInstType_1::SimdCvt        16318      0.01%     70.25% # Class of committed instruction
system.cpu.commit.committedInstType_1::SimdMisc      3354093      2.16%     72.41% # Class of committed instruction
system.cpu.commit.committedInstType_1::SimdMult            0      0.00%     72.41% # Class of committed instruction
system.cpu.commit.committedInstType_1::SimdMultAcc            0      0.00%     72.41% # Class of committed instruction
system.cpu.commit.committedInstType_1::SimdShift         2037      0.00%     72.41% # Class of committed instruction
system.cpu.commit.committedInstType_1::SimdShiftAcc            0      0.00%     72.41% # Class of committed instruction
system.cpu.commit.committedInstType_1::SimdDiv            0      0.00%     72.41% # Class of committed instruction
system.cpu.commit.committedInstType_1::SimdSqrt            0      0.00%     72.41% # Class of committed instruction
system.cpu.commit.committedInstType_1::SimdFloatAdd            0      0.00%     72.41% # Class of committed instruction
system.cpu.commit.committedInstType_1::SimdFloatAlu            0      0.00%     72.41% # Class of committed instruction
system.cpu.commit.committedInstType_1::SimdFloatCmp            0      0.00%     72.41% # Class of committed instruction
system.cpu.commit.committedInstType_1::SimdFloatCvt        21026      0.01%     72.43% # Class of committed instruction
system.cpu.commit.committedInstType_1::SimdFloatDiv            0      0.00%     72.43% # Class of committed instruction
system.cpu.commit.committedInstType_1::SimdFloatMisc            0      0.00%     72.43% # Class of committed instruction
system.cpu.commit.committedInstType_1::SimdFloatMult        10513      0.01%     72.44% # Class of committed instruction
system.cpu.commit.committedInstType_1::SimdFloatMultAcc            0      0.00%     72.44% # Class of committed instruction
system.cpu.commit.committedInstType_1::SimdFloatSqrt            0      0.00%     72.44% # Class of committed instruction
system.cpu.commit.committedInstType_1::SimdReduceAdd            0      0.00%     72.44% # Class of committed instruction
system.cpu.commit.committedInstType_1::SimdReduceAlu            0      0.00%     72.44% # Class of committed instruction
system.cpu.commit.committedInstType_1::SimdReduceCmp            0      0.00%     72.44% # Class of committed instruction
system.cpu.commit.committedInstType_1::SimdFloatReduceAdd            0      0.00%     72.44% # Class of committed instruction
system.cpu.commit.committedInstType_1::SimdFloatReduceCmp            0      0.00%     72.44% # Class of committed instruction
system.cpu.commit.committedInstType_1::SimdAes            0      0.00%     72.44% # Class of committed instruction
system.cpu.commit.committedInstType_1::SimdAesMix            0      0.00%     72.44% # Class of committed instruction
system.cpu.commit.committedInstType_1::SimdSha1Hash            0      0.00%     72.44% # Class of committed instruction
system.cpu.commit.committedInstType_1::SimdSha1Hash2            0      0.00%     72.44% # Class of committed instruction
system.cpu.commit.committedInstType_1::SimdSha256Hash            0      0.00%     72.44% # Class of committed instruction
system.cpu.commit.committedInstType_1::SimdSha256Hash2            0      0.00%     72.44% # Class of committed instruction
system.cpu.commit.committedInstType_1::SimdShaSigma2            0      0.00%     72.44% # Class of committed instruction
system.cpu.commit.committedInstType_1::SimdShaSigma3            0      0.00%     72.44% # Class of committed instruction
system.cpu.commit.committedInstType_1::SimdPredAlu            0      0.00%     72.44% # Class of committed instruction
system.cpu.commit.committedInstType_1::MemRead     29407288     18.94%     91.38% # Class of committed instruction
system.cpu.commit.committedInstType_1::MemWrite     12227999      7.88%     99.26% # Class of committed instruction
system.cpu.commit.committedInstType_1::FloatMemRead        42595      0.03%     99.28% # Class of committed instruction
system.cpu.commit.committedInstType_1::FloatMemWrite      1110578      0.72%    100.00% # Class of committed instruction
system.cpu.commit.committedInstType_1::IprAccess            0      0.00%    100.00% # Class of committed instruction
system.cpu.commit.committedInstType_1::InstPrefetch            0      0.00%    100.00% # Class of committed instruction
system.cpu.commit.committedInstType_1::total    155229019                       # Class of committed instruction
system.cpu.commit.committedInstType::total    310434945      0.00%      0.00% # Class of committed instruction
system.cpu.commit.commitEligibleSamples      13749012                       # number cycles where commit BW limit reached
system.cpu.dcache.demand_hits::.cpu.data     80777851                       # number of demand (read+write) hits
system.cpu.dcache.demand_hits::total         80777851                       # number of demand (read+write) hits
system.cpu.dcache.overall_hits::.cpu.data     80777851                       # number of overall hits
system.cpu.dcache.overall_hits::total        80777851                       # number of overall hits
system.cpu.dcache.demand_misses::.cpu.data      1734413                       # number of demand (read+write) misses
system.cpu.dcache.demand_misses::total        1734413                       # number of demand (read+write) misses
system.cpu.dcache.overall_misses::.cpu.data      1734413                       # number of overall misses
system.cpu.dcache.overall_misses::total       1734413                       # number of overall misses
system.cpu.dcache.demand_miss_latency::.cpu.data  28275227758                       # number of demand (read+write) miss cycles
system.cpu.dcache.demand_miss_latency::total  28275227758                       # number of demand (read+write) miss cycles
system.cpu.dcache.overall_miss_latency::.cpu.data  28275227758                       # number of overall miss cycles
system.cpu.dcache.overall_miss_latency::total  28275227758                       # number of overall miss cycles
system.cpu.dcache.demand_accesses::.cpu.data     82512264                       # number of demand (read+write) accesses
system.cpu.dcache.demand_accesses::total     82512264                       # number of demand (read+write) accesses
system.cpu.dcache.overall_accesses::.cpu.data     82512264                       # number of overall (read+write) accesses
system.cpu.dcache.overall_accesses::total     82512264                       # number of overall (read+write) accesses
system.cpu.dcache.demand_miss_rate::.cpu.data     0.021020                       # miss rate for demand accesses
system.cpu.dcache.demand_miss_rate::total     0.021020                       # miss rate for demand accesses
system.cpu.dcache.overall_miss_rate::.cpu.data     0.021020                       # miss rate for overall accesses
system.cpu.dcache.overall_miss_rate::total     0.021020                       # miss rate for overall accesses
system.cpu.dcache.demand_avg_miss_latency::.cpu.data 16302.476837                       # average overall miss latency
system.cpu.dcache.demand_avg_miss_latency::total 16302.476837                       # average overall miss latency
system.cpu.dcache.overall_avg_miss_latency::.cpu.data 16302.476837                       # average overall miss latency
system.cpu.dcache.overall_avg_miss_latency::total 16302.476837                       # average overall miss latency
system.cpu.dcache.blocked_cycles::no_mshrs           18                       # number of cycles access was blocked
system.cpu.dcache.blocked_cycles::no_targets       118449                       # number of cycles access was blocked
system.cpu.dcache.blocked::no_mshrs                10                       # number of cycles access was blocked
system.cpu.dcache.blocked::no_targets            1646                       # number of cycles access was blocked
system.cpu.dcache.avg_blocked_cycles::no_mshrs     1.800000                       # average number of cycles each access was blocked
system.cpu.dcache.avg_blocked_cycles::no_targets    71.961725                       # average number of cycles each access was blocked
system.cpu.dcache.writebacks::.writebacks       999284                       # number of writebacks
system.cpu.dcache.writebacks::total            999284                       # number of writebacks
system.cpu.dcache.demand_mshr_hits::.cpu.data       734997                       # number of demand (read+write) MSHR hits
system.cpu.dcache.demand_mshr_hits::total       734997                       # number of demand (read+write) MSHR hits
system.cpu.dcache.overall_mshr_hits::.cpu.data       734997                       # number of overall MSHR hits
system.cpu.dcache.overall_mshr_hits::total       734997                       # number of overall MSHR hits
system.cpu.dcache.demand_mshr_misses::.cpu.data       999416                       # number of demand (read+write) MSHR misses
system.cpu.dcache.demand_mshr_misses::total       999416                       # number of demand (read+write) MSHR misses
system.cpu.dcache.overall_mshr_misses::.cpu.data       999416                       # number of overall MSHR misses
system.cpu.dcache.overall_mshr_misses::total       999416                       # number of overall MSHR misses
system.cpu.dcache.demand_mshr_miss_latency::.cpu.data  16630907758                       # number of demand (read+write) MSHR miss cycles
system.cpu.dcache.demand_mshr_miss_latency::total  16630907758                       # number of demand (read+write) MSHR miss cycles
system.cpu.dcache.overall_mshr_miss_latency::.cpu.data  16630907758                       # number of overall MSHR miss cycles
system.cpu.dcache.overall_mshr_miss_latency::total  16630907758                       # number of overall MSHR miss cycles
system.cpu.dcache.demand_mshr_miss_rate::.cpu.data     0.012112                       # mshr miss rate for demand accesses
system.cpu.dcache.demand_mshr_miss_rate::total     0.012112                       # mshr miss rate for demand accesses
system.cpu.dcache.overall_mshr_miss_rate::.cpu.data     0.012112                       # mshr miss rate for overall accesses
system.cpu.dcache.overall_mshr_miss_rate::total     0.012112                       # mshr miss rate for overall accesses
system.cpu.dcache.demand_avg_mshr_miss_latency::.cpu.data 16640.625884                       # average overall mshr miss latency
system.cpu.dcache.demand_avg_mshr_miss_latency::total 16640.625884                       # average overall mshr miss latency
system.cpu.dcache.overall_avg_mshr_miss_latency::.cpu.data 16640.625884                       # average overall mshr miss latency
system.cpu.dcache.overall_avg_mshr_miss_latency::total 16640.625884                       # average overall mshr miss latency
system.cpu.dcache.replacements                  16872                       # number of replacements
system.cpu.dcache.expired                      982412                       # dead blocks evicted
system.cpu.dcache.ReadReq_hits::.cpu.data     54188042                       # number of ReadReq hits
system.cpu.dcache.ReadReq_hits::total        54188042                       # number of ReadReq hits
system.cpu.dcache.ReadReq_misses::.cpu.data      1649018                       # number of ReadReq misses
system.cpu.dcache.ReadReq_misses::total       1649018                       # number of ReadReq misses
system.cpu.dcache.ReadReq_miss_latency::.cpu.data  22692765000                       # number of ReadReq miss cycles
system.cpu.dcache.ReadReq_miss_latency::total  22692765000                       # number of ReadReq miss cycles
system.cpu.dcache.ReadReq_accesses::.cpu.data     55837060                       # number of ReadReq accesses(hits+misses)
system.cpu.dcache.ReadReq_accesses::total     55837060                       # number of ReadReq accesses(hits+misses)
system.cpu.dcache.ReadReq_miss_rate::.cpu.data     0.029533                       # miss rate for ReadReq accesses
system.cpu.dcache.ReadReq_miss_rate::total     0.029533                       # miss rate for ReadReq accesses
system.cpu.dcache.ReadReq_avg_miss_latency::.cpu.data 13761.381016                       # average ReadReq miss latency
system.cpu.dcache.ReadReq_avg_miss_latency::total 13761.381016                       # average ReadReq miss latency
system.cpu.dcache.ReadReq_mshr_hits::.cpu.data       734972                       # number of ReadReq MSHR hits
system.cpu.dcache.ReadReq_mshr_hits::total       734972                       # number of ReadReq MSHR hits
system.cpu.dcache.ReadReq_mshr_misses::.cpu.data       914046                       # number of ReadReq MSHR misses
system.cpu.dcache.ReadReq_mshr_misses::total       914046                       # number of ReadReq MSHR misses
system.cpu.dcache.ReadReq_mshr_miss_latency::.cpu.data  11134221000                       # number of ReadReq MSHR miss cycles
system.cpu.dcache.ReadReq_mshr_miss_latency::total  11134221000                       # number of ReadReq MSHR miss cycles
system.cpu.dcache.ReadReq_mshr_miss_rate::.cpu.data     0.016370                       # mshr miss rate for ReadReq accesses
system.cpu.dcache.ReadReq_mshr_miss_rate::total     0.016370                       # mshr miss rate for ReadReq accesses
system.cpu.dcache.ReadReq_avg_mshr_miss_latency::.cpu.data 12181.247990                       # average ReadReq mshr miss latency
system.cpu.dcache.ReadReq_avg_mshr_miss_latency::total 12181.247990                       # average ReadReq mshr miss latency
system.cpu.dcache.WriteReq_hits::.cpu.data     26589809                       # number of WriteReq hits
system.cpu.dcache.WriteReq_hits::total       26589809                       # number of WriteReq hits
system.cpu.dcache.WriteReq_misses::.cpu.data        85395                       # number of WriteReq misses
system.cpu.dcache.WriteReq_misses::total        85395                       # number of WriteReq misses
system.cpu.dcache.WriteReq_miss_latency::.cpu.data   5582462758                       # number of WriteReq miss cycles
system.cpu.dcache.WriteReq_miss_latency::total   5582462758                       # number of WriteReq miss cycles
system.cpu.dcache.WriteReq_accesses::.cpu.data     26675204                       # number of WriteReq accesses(hits+misses)
system.cpu.dcache.WriteReq_accesses::total     26675204                       # number of WriteReq accesses(hits+misses)
system.cpu.dcache.WriteReq_miss_rate::.cpu.data     0.003201                       # miss rate for WriteReq accesses
system.cpu.dcache.WriteReq_miss_rate::total     0.003201                       # miss rate for WriteReq accesses
system.cpu.dcache.WriteReq_avg_miss_latency::.cpu.data 65372.243785                       # average WriteReq miss latency
system.cpu.dcache.WriteReq_avg_miss_latency::total 65372.243785                       # average WriteReq miss latency
system.cpu.dcache.WriteReq_mshr_hits::.cpu.data           25                       # number of WriteReq MSHR hits
system.cpu.dcache.WriteReq_mshr_hits::total           25                       # number of WriteReq MSHR hits
system.cpu.dcache.WriteReq_mshr_misses::.cpu.data        85370                       # number of WriteReq MSHR misses
system.cpu.dcache.WriteReq_mshr_misses::total        85370                       # number of WriteReq MSHR misses
system.cpu.dcache.WriteReq_mshr_miss_latency::.cpu.data   5496686758                       # number of WriteReq MSHR miss cycles
system.cpu.dcache.WriteReq_mshr_miss_latency::total   5496686758                       # number of WriteReq MSHR miss cycles
system.cpu.dcache.WriteReq_mshr_miss_rate::.cpu.data     0.003200                       # mshr miss rate for WriteReq accesses
system.cpu.dcache.WriteReq_mshr_miss_rate::total     0.003200                       # mshr miss rate for WriteReq accesses
system.cpu.dcache.WriteReq_avg_mshr_miss_latency::.cpu.data 64386.631814                       # average WriteReq mshr miss latency
system.cpu.dcache.WriteReq_avg_mshr_miss_latency::total 64386.631814                       # average WriteReq mshr miss latency
system.cpu.dcache.power_state.pwrStateResidencyTicks::UNDEFINED  64639084500                       # Cumulative time (in ticks) in various power states
system.cpu.dcache.tags.tagsinuse           170.514438                       # Cycle average of tags in use
system.cpu.dcache.tags.total_refs            81777267                       # Total number of references to valid blocks.
system.cpu.dcache.tags.sampled_refs            999414                       # Sample count of references to valid blocks.
system.cpu.dcache.tags.avg_refs             81.825217                       # Average number of references to valid blocks.
system.cpu.dcache.tags.warmup_cycle            192500                       # Cycle when the warmup percentage was hit.
system.cpu.dcache.tags.occ_blocks::.cpu.data   170.514438                       # Average occupied blocks per requestor
system.cpu.dcache.tags.occ_percent::.cpu.data     0.333036                       # Average percentage of cache occupancy
system.cpu.dcache.tags.occ_percent::total     0.333036                       # Average percentage of cache occupancy
system.cpu.dcache.tags.occ_task_id_blocks::1024          130                       # Occupied blocks per task id
system.cpu.dcache.tags.age_task_id_blocks_1024::0            2                       # Occupied blocks per task id
system.cpu.dcache.tags.age_task_id_blocks_1024::1           26                       # Occupied blocks per task id
system.cpu.dcache.tags.age_task_id_blocks_1024::2           41                       # Occupied blocks per task id
system.cpu.dcache.tags.age_task_id_blocks_1024::3           21                       # Occupied blocks per task id
system.cpu.dcache.tags.age_task_id_blocks_1024::4           40                       # Occupied blocks per task id
system.cpu.dcache.tags.occ_task_id_percent::1024     0.253906                       # Percentage of cache occupancy per task id
system.cpu.dcache.tags.tag_accesses         661097526                       # Number of tag accesses
system.cpu.dcache.tags.data_accesses        661097526                       # Number of data accesses
system.cpu.dcache.tags.power_state.pwrStateResidencyTicks::UNDEFINED  64639084500                       # Cumulative time (in ticks) in various power states
system.cpu.decode.idleCycles                 34957441                       # Number of cycles decode is idle
system.cpu.decode.blockedCycles             108455208                       # Number of cycles decode is blocked
system.cpu.decode.runCycles                  78661723                       # Number of cycles decode is running
system.cpu.decode.unblockCycles              35039686                       # Number of cycles decode is unblocking
system.cpu.decode.squashCycles                1245796                       # Number of cycles decode is squashing
system.cpu.decode.branchResolved             16217458                       # Number of times decode resolved a  branch
system.cpu.decode.branchMispred                 12167                       # Number of times decode detected a branch misprediction
system.cpu.decode.decodedInsts              377581315                       # Number of instructions handled by decode
system.cpu.decode.squashedInsts               4789835                       # Number of squashed instructions handled by decode
system.cpu.dtb.rdAccesses                    62410744                       # TLB accesses on read requests
system.cpu.dtb.wrAccesses                    27557490                       # TLB accesses on write requests
system.cpu.dtb.rdMisses                       1060334                       # TLB misses on read requests
system.cpu.dtb.wrMisses                        190258                       # TLB misses on write requests
system.cpu.dtb.walker.power_state.pwrStateResidencyTicks::UNDEFINED  64639084500                       # Cumulative time (in ticks) in various power states
system.cpu.dtb_walker_cache.blocked_cycles::no_mshrs            0                       # number of cycles access was blocked
system.cpu.dtb_walker_cache.blocked_cycles::no_targets            0                       # number of cycles access was blocked
system.cpu.dtb_walker_cache.blocked::no_mshrs            0                       # number of cycles access was blocked
system.cpu.dtb_walker_cache.blocked::no_targets            0                       # number of cycles access was blocked
system.cpu.dtb_walker_cache.avg_blocked_cycles::no_mshrs          nan                       # average number of cycles each access was blocked
system.cpu.dtb_walker_cache.avg_blocked_cycles::no_targets          nan                       # average number of cycles each access was blocked
system.cpu.dtb_walker_cache.replacements            0                       # number of replacements
system.cpu.dtb_walker_cache.expired                 0                       # dead blocks evicted
system.cpu.dtb_walker_cache.power_state.pwrStateResidencyTicks::UNDEFINED  64639084500                       # Cumulative time (in ticks) in various power states
system.cpu.dtb_walker_cache.tags.tagsinuse            0                       # Cycle average of tags in use
system.cpu.dtb_walker_cache.tags.total_refs            0                       # Total number of references to valid blocks.
system.cpu.dtb_walker_cache.tags.sampled_refs            0                       # Sample count of references to valid blocks.
system.cpu.dtb_walker_cache.tags.avg_refs          nan                       # Average number of references to valid blocks.
system.cpu.dtb_walker_cache.tags.warmup_cycle            0                       # Cycle when the warmup percentage was hit.
system.cpu.dtb_walker_cache.tags.tag_accesses            0                       # Number of tag accesses
system.cpu.dtb_walker_cache.tags.data_accesses            0                       # Number of data accesses
system.cpu.dtb_walker_cache.tags.power_state.pwrStateResidencyTicks::UNDEFINED  64639084500                       # Cumulative time (in ticks) in various power states
system.cpu.fetch.icacheStallCycles            1034552                       # Number of cycles fetch is stalled on an Icache miss
system.cpu.fetch.insts                      251387736                       # Number of instructions fetch has processed
system.cpu.fetch.branches                    35719258                       # Number of branches that fetch encountered
system.cpu.fetch.predictedBranches           23831211                       # Number of branches that fetch has predicted taken
system.cpu.fetch.cycles                     126747655                       # Number of cycles fetch has run and was not squashing or blocked
system.cpu.fetch.squashCycles                 1257518                       # Number of cycles fetch has spent squashing
system.cpu.fetch.tlbCycles                       1747                       # Number of cycles fetch has spent waiting for tlb
system.cpu.fetch.miscStallCycles                   47                       # Number of cycles fetch has spent waiting on interrupts,or bad addresses, or out of MSHRs
system.cpu.fetch.cacheLines                  74070215                       # Number of cache lines fetched
system.cpu.fetch.icacheSquashes                  3533                       # Number of outstanding Icache misses that were squashed
system.cpu.fetch.tlbSquashes                      754                       # Number of outstanding ITLB misses that were squashed
system.cpu.fetch.SMTDist::samples           129179927                       # Number of Cycles each Thread Fetched
system.cpu.fetch.SMTDist::mean               0.483784                       # Number of Cycles each Thread Fetched
system.cpu.fetch.SMTDist::stdev              0.520912                       # Number of Cycles each Thread Fetched
system.cpu.fetch.SMTDist::underflows                0      0.00%      0.00% # Number of Cycles each Thread Fetched
system.cpu.fetch.SMTDist::-1                  1395926      1.08%      1.08% # Number of Cycles each Thread Fetched
system.cpu.fetch.SMTDist::0                  63892897     49.46%     50.54% # Number of Cycles each Thread Fetched
system.cpu.fetch.SMTDist::1                  63891104     49.46%    100.00% # Number of Cycles each Thread Fetched
system.cpu.fetch.SMTDist::2                         0      0.00%    100.00% # Number of Cycles each Thread Fetched
system.cpu.fetch.SMTDist::overflows                 0      0.00%    100.00% # Number of Cycles each Thread Fetched
system.cpu.fetch.SMTDist::min_value                -1                       # Number of Cycles each Thread Fetched
system.cpu.fetch.SMTDist::max_value                 1                       # Number of Cycles each Thread Fetched
system.cpu.fetch.SMTDist::total             129179927                       # Number of Cycles each Thread Fetched
system.cpu.fetch.nisnDist::samples          129179927                       # Number of instructions fetched each cycle (Total)
system.cpu.fetch.nisnDist::mean              3.131691                       # Number of instructions fetched each cycle (Total)
system.cpu.fetch.nisnDist::stdev             2.837179                       # Number of instructions fetched each cycle (Total)
system.cpu.fetch.nisnDist::underflows               0      0.00%      0.00% # Number of instructions fetched each cycle (Total)
system.cpu.fetch.nisnDist::0                 42679909     33.04%     33.04% # Number of instructions fetched each cycle (Total)
system.cpu.fetch.nisnDist::1                  4872289      3.77%     36.81% # Number of instructions fetched each cycle (Total)
system.cpu.fetch.nisnDist::2                 12783442      9.90%     46.71% # Number of instructions fetched each cycle (Total)
system.cpu.fetch.nisnDist::3                 12258170      9.49%     56.20% # Number of instructions fetched each cycle (Total)
system.cpu.fetch.nisnDist::4                 12258884      9.49%     65.69% # Number of instructions fetched each cycle (Total)
system.cpu.fetch.nisnDist::5                 13630563     10.55%     76.24% # Number of instructions fetched each cycle (Total)
system.cpu.fetch.nisnDist::6                 10154406      7.86%     84.10% # Number of instructions fetched each cycle (Total)
system.cpu.fetch.nisnDist::7                  5114908      3.96%     88.06% # Number of instructions fetched each cycle (Total)
system.cpu.fetch.nisnDist::8                 15427356     11.94%    100.00% # Number of instructions fetched each cycle (Total)
system.cpu.fetch.nisnDist::overflows                0      0.00%    100.00% # Number of instructions fetched each cycle (Total)
system.cpu.fetch.nisnDist::min_value                0                       # Number of instructions fetched each cycle (Total)
system.cpu.fetch.nisnDist::max_value                8                       # Number of instructions fetched each cycle (Total)
system.cpu.fetch.nisnDist::total            129179927                       # Number of instructions fetched each cycle (Total)
system.cpu.fetch.branchRate                  0.276298                       # Number of branch fetches per cycle
system.cpu.fetch.rate                        1.944549                       # Number of inst fetches per cycle
system.cpu.icache.demand_hits::.cpu.inst     74062457                       # number of demand (read+write) hits
system.cpu.icache.demand_hits::total         74062457                       # number of demand (read+write) hits
system.cpu.icache.overall_hits::.cpu.inst     74062457                       # number of overall hits
system.cpu.icache.overall_hits::total        74062457                       # number of overall hits
system.cpu.icache.demand_misses::.cpu.inst         7755                       # number of demand (read+write) misses
system.cpu.icache.demand_misses::total           7755                       # number of demand (read+write) misses
system.cpu.icache.overall_misses::.cpu.inst         7755                       # number of overall misses
system.cpu.icache.overall_misses::total          7755                       # number of overall misses
system.cpu.icache.demand_miss_latency::.cpu.inst    379388000                       # number of demand (read+write) miss cycles
system.cpu.icache.demand_miss_latency::total    379388000                       # number of demand (read+write) miss cycles
[...]
system.mem_ctrls1.dram.perBankWrBursts::6          646                       # Per bank write bursts
system.mem_ctrls1.dram.perBankWrBursts::7          679                       # Per bank write bursts
system.mem_ctrls1.dram.perBankWrBursts::8          630                       # Per bank write bursts
system.mem_ctrls1.dram.perBankWrBursts::9          627                       # Per bank write bursts
system.mem_ctrls1.dram.perBankWrBursts::10          607                       # Per bank write bursts
system.mem_ctrls1.dram.perBankWrBursts::11          674                       # Per bank write bursts
system.mem_ctrls1.dram.perBankWrBursts::12          598                       # Per bank write bursts
system.mem_ctrls1.dram.perBankWrBursts::13          727                       # Per bank write bursts
system.mem_ctrls1.dram.perBankWrBursts::14          606                       # Per bank write bursts
system.mem_ctrls1.dram.perBankWrBursts::15          600                       # Per bank write bursts
system.mem_ctrls1.dram.perBankWrBursts::16          637                       # Per bank write bursts
system.mem_ctrls1.dram.perBankWrBursts::17          704                       # Per bank write bursts
system.mem_ctrls1.dram.perBankWrBursts::18          523                       # Per bank write bursts
system.mem_ctrls1.dram.perBankWrBursts::19          739                       # Per bank write bursts
system.mem_ctrls1.dram.perBankWrBursts::20          866                       # Per bank write bursts
system.mem_ctrls1.dram.perBankWrBursts::21          786                       # Per bank write bursts
system.mem_ctrls1.dram.perBankWrBursts::22          702                       # Per bank write bursts
system.mem_ctrls1.dram.perBankWrBursts::23          753                       # Per bank write bursts
system.mem_ctrls1.dram.perBankWrBursts::24          657                       # Per bank write bursts
system.mem_ctrls1.dram.perBankWrBursts::25          686                       # Per bank write bursts
system.mem_ctrls1.dram.perBankWrBursts::26          692                       # Per bank write bursts
system.mem_ctrls1.dram.perBankWrBursts::27          710                       # Per bank write bursts
system.mem_ctrls1.dram.perBankWrBursts::28          661                       # Per bank write bursts
system.mem_ctrls1.dram.perBankWrBursts::29          804                       # Per bank write bursts
system.mem_ctrls1.dram.perBankWrBursts::30          710                       # Per bank write bursts
system.mem_ctrls1.dram.perBankWrBursts::31          713                       # Per bank write bursts
system.mem_ctrls1.dram.totQLat              476662532                       # Total ticks spent queuing
system.mem_ctrls1.dram.totBusLat            162261736                       # Total ticks spent in databus transfers
system.mem_ctrls1.dram.totMemAccLat        1328487948                       # Total ticks spent from burst creation until serviced by the DRAM
system.mem_ctrls1.dram.avgQLat                9788.13                       # Average queueing delay per DRAM burst
system.mem_ctrls1.dram.avgBusLat              3332.00                       # Average bus latency per DRAM burst
system.mem_ctrls1.dram.avgMemAccLat          27280.13                       # Average memory access latency per DRAM burst
system.mem_ctrls1.dram.readRowHits              40784                       # Number of row buffer hits during reads
system.mem_ctrls1.dram.writeRowHits             16377                       # Number of row buffer hits during writes
system.mem_ctrls1.dram.readRowHitRate           83.75                       # Row buffer hit rate for reads
system.mem_ctrls1.dram.writeRowHitRate          75.46                       # Row buffer hit rate for writes
system.mem_ctrls1.dram.bytesPerActivate::samples        13239                       # Bytes accessed per row activation
system.mem_ctrls1.dram.bytesPerActivate::mean   340.327819                       # Bytes accessed per row activation
system.mem_ctrls1.dram.bytesPerActivate::gmean   222.432151                       # Bytes accessed per row activation
system.mem_ctrls1.dram.bytesPerActivate::stdev   319.729826                       # Bytes accessed per row activation
system.mem_ctrls1.dram.bytesPerActivate::0-127         2673     20.19%     20.19% # Bytes accessed per row activation
system.mem_ctrls1.dram.bytesPerActivate::128-255         4215     31.84%     52.03% # Bytes accessed per row activation
system.mem_ctrls1.dram.bytesPerActivate::256-383         1954     14.76%     66.79% # Bytes accessed per row activation
system.mem_ctrls1.dram.bytesPerActivate::384-511         1186      8.96%     75.75% # Bytes accessed per row activation
system.mem_ctrls1.dram.bytesPerActivate::512-639          638      4.82%     80.56% # Bytes accessed per row activation
system.mem_ctrls1.dram.bytesPerActivate::640-767          423      3.20%     83.76% # Bytes accessed per row activation
system.mem_ctrls1.dram.bytesPerActivate::768-895          275      2.08%     85.84% # Bytes accessed per row activation
system.mem_ctrls1.dram.bytesPerActivate::896-1023          208      1.57%     87.41% # Bytes accessed per row activation
system.mem_ctrls1.dram.bytesPerActivate::1024-1151         1667     12.59%    100.00% # Bytes accessed per row activation
system.mem_ctrls1.dram.bytesPerActivate::total        13239                       # Bytes accessed per row activation
system.mem_ctrls1.dram.bytesRead              3116672                       # Total number of bytes read from DRAM
system.mem_ctrls1.dram.bytesWritten           1388928                       # Total number of bytes written to DRAM
system.mem_ctrls1.dram.avgRdBW              48.216524                       # Average DRAM read bandwidth in MiBytes/s
system.mem_ctrls1.dram.avgWrBW              21.487433                       # Average DRAM write bandwidth in MiBytes/s
system.mem_ctrls1.dram.peakBW                19207.00                       # Theoretical peak bandwidth in MiByte/s
system.mem_ctrls1.dram.busUtil                   0.36                       # Data bus utilization in percentage
system.mem_ctrls1.dram.busUtilRead               0.25                       # Data bus utilization in percentage for reads
system.mem_ctrls1.dram.busUtilWrite              0.11                       # Data bus utilization in percentage for writes
system.mem_ctrls1.dram.pageHitRate              81.19                       # Row buffer hit rate, read and write combined
system.mem_ctrls1.dram.power_state.pwrStateResidencyTicks::UNDEFINED  64639084500                       # Cumulative time (in ticks) in various power states
system.mem_ctrls1.dram.rank0.actEnergy   17284123.584000                       # Energy for activate commands per rank (pJ)
system.mem_ctrls1.dram.rank0.preEnergy   22979020.713600                       # Energy for precharge commands per rank (pJ)
system.mem_ctrls1.dram.rank0.readEnergy  92639921.203200                       # Energy for read commands per rank (pJ)
system.mem_ctrls1.dram.rank0.writeEnergy 38934260.064000                       # Energy for write commands per rank (pJ)
system.mem_ctrls1.dram.rank0.refreshEnergy 11501405061.013170                       # Energy for refresh commands per rank (pJ)
system.mem_ctrls1.dram.rank0.actBackEnergy 6167056934.103624                       # Energy for active background per rank (pJ)
system.mem_ctrls1.dram.rank0.preBackEnergy 37457864970.354736                       # Energy for precharge background per rank (pJ)
system.mem_ctrls1.dram.rank0.actPowerDownEnergy            0                       # Energy for active power-down per rank (pJ)
system.mem_ctrls1.dram.rank0.prePowerDownEnergy            0                       # Energy for precharge power-down per rank (pJ)
system.mem_ctrls1.dram.rank0.selfRefreshEnergy            0                       # Energy for self refresh per rank (pJ)
system.mem_ctrls1.dram.rank0.totalEnergy 55298164291.037857                       # Total energy per rank (pJ)
system.mem_ctrls1.dram.rank0.averagePower   855.491143                       # Core power per rank (mW)
system.mem_ctrls1.dram.rank0.totalIdleTime            0                       # Total Idle time Per DRAM Rank
system.mem_ctrls1.dram.rank0.pwrStateTime::IDLE  57247894632                       # Time in different power states
system.mem_ctrls1.dram.rank0.pwrStateTime::REF   2905700000                       # Time in different power states
system.mem_ctrls1.dram.rank0.pwrStateTime::SREF            0                       # Time in different power states
system.mem_ctrls1.dram.rank0.pwrStateTime::PRE_PDN            0                       # Time in different power states
system.mem_ctrls1.dram.rank0.pwrStateTime::ACT   4485489868                       # Time in different power states
system.mem_ctrls1.dram.rank0.pwrStateTime::ACT_PDN            0                       # Time in different power states
system.mem_ctrls1.dram.rank1.actEnergy   24005034.144001                       # Energy for activate commands per rank (pJ)
system.mem_ctrls1.dram.rank1.preEnergy   31914385.137600                       # Energy for precharge commands per rank (pJ)
system.mem_ctrls1.dram.rank1.readEnergy  112199294.323196                       # Energy for read commands per rank (pJ)
system.mem_ctrls1.dram.rank1.writeEnergy 42632620.128000                       # Energy for write commands per rank (pJ)
system.mem_ctrls1.dram.rank1.refreshEnergy 11501405061.013170                       # Energy for refresh commands per rank (pJ)
system.mem_ctrls1.dram.rank1.actBackEnergy 9322811439.178667                       # Energy for active background per rank (pJ)
system.mem_ctrls1.dram.rank1.preBackEnergy 35033104446.681938                       # Energy for precharge background per rank (pJ)
system.mem_ctrls1.dram.rank1.actPowerDownEnergy            0                       # Energy for active power-down per rank (pJ)
system.mem_ctrls1.dram.rank1.prePowerDownEnergy            0                       # Energy for precharge power-down per rank (pJ)
system.mem_ctrls1.dram.rank1.selfRefreshEnergy            0                       # Energy for self refresh per rank (pJ)
system.mem_ctrls1.dram.rank1.totalEnergy 56068072280.607918                       # Total energy per rank (pJ)
system.mem_ctrls1.dram.rank1.averagePower   867.402017                       # Core power per rank (mW)
system.mem_ctrls1.dram.rank1.totalIdleTime            0                       # Total Idle time Per DRAM Rank
system.mem_ctrls1.dram.rank1.pwrStateTime::IDLE  53515712239                       # Time in different power states
system.mem_ctrls1.dram.rank1.pwrStateTime::REF   2905700000                       # Time in different power states
system.mem_ctrls1.dram.rank1.pwrStateTime::SREF            0                       # Time in different power states
system.mem_ctrls1.dram.rank1.pwrStateTime::PRE_PDN            0                       # Time in different power states
system.mem_ctrls1.dram.rank1.pwrStateTime::ACT   8217672261                       # Time in different power states
system.mem_ctrls1.dram.rank1.pwrStateTime::ACT_PDN            0                       # Time in different power states
system.mem_ctrls1.power_state.pwrStateResidencyTicks::UNDEFINED  64639084500                       # Cumulative time (in ticks) in various power states
system.membus.trans_dist::ReadResp              21899                       # Transaction distribution
system.membus.trans_dist::WritebackDirty        43446                       # Transaction distribution
system.membus.trans_dist::CleanEvict             8029                       # Transaction distribution
system.membus.trans_dist::ReadExReq             75662                       # Transaction distribution
system.membus.trans_dist::ReadExResp            75662                       # Transaction distribution
system.membus.trans_dist::ReadSharedReq         21899                       # Transaction distribution
system.membus.pkt_count_system.l2.mem_side_port::system.mem_ctrls0.port       123328                       # Packet count per connected requestor and responder (bytes)
system.membus.pkt_count_system.l2.mem_side_port::system.mem_ctrls1.port       123269                       # Packet count per connected requestor and responder (bytes)
system.membus.pkt_count_system.l2.mem_side_port::total       246597                       # Packet count per connected requestor and responder (bytes)
system.membus.pkt_count::total                 246597                       # Packet count per connected requestor and responder (bytes)
system.membus.pkt_size_system.l2.mem_side_port::system.mem_ctrls0.port      4511040                       # Cumulative packet size per connected requestor and responder (bytes)
system.membus.pkt_size_system.l2.mem_side_port::system.mem_ctrls1.port      4513408                       # Cumulative packet size per connected requestor and responder (bytes)
system.membus.pkt_size_system.l2.mem_side_port::total      9024448                       # Cumulative packet size per connected requestor and responder (bytes)
system.membus.pkt_size::total                 9024448                       # Cumulative packet size per connected requestor and responder (bytes)
system.membus.snoops                                0                       # Total snoops (count)
system.membus.snoopTraffic                          0                       # Total snoop traffic (bytes)
system.membus.snoop_fanout::samples             97561                       # Request fanout histogram
system.membus.snoop_fanout::mean                    0                       # Request fanout histogram
system.membus.snoop_fanout::stdev                   0                       # Request fanout histogram
system.membus.snoop_fanout::underflows              0      0.00%      0.00% # Request fanout histogram
system.membus.snoop_fanout::0                   97561    100.00%    100.00% # Request fanout histogram
system.membus.snoop_fanout::1                       0      0.00%    100.00% # Request fanout histogram
system.membus.snoop_fanout::overflows               0      0.00%    100.00% # Request fanout histogram
system.membus.snoop_fanout::min_value               0                       # Request fanout histogram
system.membus.snoop_fanout::max_value               0                       # Request fanout histogram
system.membus.snoop_fanout::total               97561                       # Request fanout histogram
system.membus.power_state.pwrStateResidencyTicks::UNDEFINED  64639084500                       # Cumulative time (in ticks) in various power states
system.membus.reqLayer4.occupancy           172922961                       # Layer occupancy (ticks)
system.membus.reqLayer4.utilization               0.3                       # Layer utilization (%)
system.membus.reqLayer5.occupancy           173156450                       # Layer occupancy (ticks)
system.membus.reqLayer5.utilization               0.3                       # Layer utilization (%)
system.membus.respLayer1.occupancy          515769216                       # Layer occupancy (ticks)
system.membus.respLayer1.utilization              0.8                       # Layer utilization (%)
system.tol2bus.trans_dist::ReadResp            920484                       # Transaction distribution
system.tol2bus.trans_dist::WritebackDirty       935262                       # Transaction distribution
system.tol2bus.trans_dist::WritebackClean       113397                       # Transaction distribution
system.tol2bus.trans_dist::CleanEvict            8249                       # Transaction distribution
system.tol2bus.trans_dist::HardPFReq              128                       # Transaction distribution
system.tol2bus.trans_dist::UpgradeReq               2                       # Transaction distribution
system.tol2bus.trans_dist::UpgradeResp              2                       # Transaction distribution
system.tol2bus.trans_dist::ReadExReq            85373                       # Transaction distribution
system.tol2bus.trans_dist::ReadExResp           85373                       # Transaction distribution
system.tol2bus.trans_dist::ReadCleanReq          6443                       # Transaction distribution
system.tol2bus.trans_dist::ReadSharedReq       914041                       # Transaction distribution
system.tol2bus.pkt_count_system.cpu.icache.mem_side_port::system.l2.cpu_side_port        18811                       # Packet count per connected requestor and responder (bytes)
system.tol2bus.pkt_count_system.cpu.dcache.mem_side_port::system.l2.cpu_side_port      2998116                       # Packet count per connected requestor and responder (bytes)
system.tol2bus.pkt_count::total               3016927                       # Packet count per connected requestor and responder (bytes)
system.tol2bus.pkt_size_system.cpu.icache.mem_side_port::system.l2.cpu_side_port       791552                       # Cumulative packet size per connected requestor and responder (bytes)
system.tol2bus.pkt_size_system.cpu.dcache.mem_side_port::system.l2.cpu_side_port    127916672                       # Cumulative packet size per connected requestor and responder (bytes)
system.tol2bus.pkt_size::total              128708224                       # Cumulative packet size per connected requestor and responder (bytes)
system.tol2bus.snoops                           51827                       # Total snoops (count)
system.tol2bus.snoopTraffic                   2780800                       # Total snoop traffic (bytes)
system.tol2bus.snoop_fanout::samples          1057682                       # Request fanout histogram
system.tol2bus.snoop_fanout::mean            0.000656                       # Request fanout histogram
system.tol2bus.snoop_fanout::stdev           0.025607                       # Request fanout histogram
system.tol2bus.snoop_fanout::underflows             0      0.00%      0.00% # Request fanout histogram
system.tol2bus.snoop_fanout::0                1056988     99.93%     99.93% # Request fanout histogram
system.tol2bus.snoop_fanout::1                    694      0.07%    100.00% # Request fanout histogram
system.tol2bus.snoop_fanout::2                      0      0.00%    100.00% # Request fanout histogram
system.tol2bus.snoop_fanout::3                      0      0.00%    100.00% # Request fanout histogram
system.tol2bus.snoop_fanout::4                      0      0.00%    100.00% # Request fanout histogram
system.tol2bus.snoop_fanout::overflows              0      0.00%    100.00% # Request fanout histogram
system.tol2bus.snoop_fanout::min_value              0                       # Request fanout histogram
system.tol2bus.snoop_fanout::max_value              1                       # Request fanout histogram
system.tol2bus.snoop_fanout::total            1057682                       # Request fanout histogram
system.tol2bus.power_state.pwrStateResidencyTicks::UNDEFINED  64639084500                       # Cumulative time (in ticks) in various power states
system.tol2bus.reqLayer0.occupancy         2010749000                       # Layer occupancy (ticks)
system.tol2bus.reqLayer0.utilization              3.1                       # Layer utilization (%)
system.tol2bus.respLayer0.occupancy           9699929                       # Layer occupancy (ticks)
system.tol2bus.respLayer0.utilization             0.0                       # Layer utilization (%)
system.tol2bus.respLayer1.occupancy        1499129485                       # Layer occupancy (ticks)
system.tol2bus.respLayer1.utilization             2.3                       # Layer utilization (%)
system.voltage_domain.voltage                       1                       # Voltage in Volts

---------- End Simulation Statistics   ----------
