
---------- Begin Simulation Statistics ----------
final_tick                                68505301500                       # Number of ticks from beginning of simulation (restored from checkpoints and never reset)
host_mem_usage                               67527576                       # Number of bytes of host memory used
host_seconds                                   980.04                       # Real time elapsed on the host
host_tick_rate                               69900285                       # Simulator tick rate (ticks/s)
sim_freq                                 1000000000000                       # Frequency of simulated ticks
sim_seconds                                  0.068505                       # Number of seconds simulated
sim_ticks                                 68505301500                       # Number of ticks simulated
system.cpu.cc_regfile_reads                 247947996                       # number of cc regfile reads
system.cpu.cc_regfile_writes                122617905                       # number of cc regfile writes
system.cpu.committedInsts::0                100000022                       # Number of Instructions Simulated
system.cpu.committedInsts::1                100000000                       # Number of Instructions Simulated
system.cpu.committedInsts::total            200000022                       # Number of Instructions Simulated
system.cpu.committedOps::0                  189056823                       # Number of Ops (including micro ops) Simulated
system.cpu.committedOps::1                  189056780                       # Number of Ops (including micro ops) Simulated
system.cpu.committedOps::total              378113603                       # Number of Ops (including micro ops) Simulated
system.cpu.cpi::0                            1.370106                       # CPI: Cycles Per Instruction
system.cpu.cpi::1                            1.370106                       # CPI: Cycles Per Instruction
system.cpu.cpi_total                         0.685053                       # CPI: Total CPI of All Threads
system.cpu.fp_regfile_reads                  10679814                       # number of floating regfile reads
system.cpu.fp_regfile_writes                  6308977                       # number of floating regfile writes
system.cpu.idleCycles                           67930                       # Total number of cycles that the CPU has spent unscheduled due to idling
system.cpu.iew.branchMispredicts              1962018                       # Number of branch mispredicts detected at execute
system.cpu.iew.exec_branches::0              22894913                       # Number of branches executed
system.cpu.iew.exec_branches::1              22900675                       # Number of branches executed
system.cpu.iew.exec_branches::total          45795588                       # Number of branches executed
system.cpu.iew.exec_nop::0                          0                       # number of nop insts executed
system.cpu.iew.exec_nop::1                          0                       # number of nop insts executed
system.cpu.iew.exec_nop::total                      0                       # number of nop insts executed
system.cpu.iew.exec_rate                     3.016134                       # Inst execution rate
system.cpu.iew.exec_refs::0                  42369652                       # number of memory reference insts executed
system.cpu.iew.exec_refs::1                  42375286                       # number of memory reference insts executed
system.cpu.iew.exec_refs::total              84744938                       # number of memory reference insts executed
system.cpu.iew.exec_stores::0                16777013                       # Number of stores executed
system.cpu.iew.exec_stores::1                16779924                       # Number of stores executed
system.cpu.iew.exec_stores::total            33556937                       # Number of stores executed
system.cpu.iew.exec_swp::0                          0                       # number of swp insts executed
system.cpu.iew.exec_swp::1                          0                       # number of swp insts executed
system.cpu.iew.exec_swp::total                      0                       # number of swp insts executed
system.cpu.iew.iewBlockCycles                11650039                       # Number of cycles IEW is blocking
system.cpu.iew.iewDispLoadInsts              54410520                       # Number of dispatched load instructions
system.cpu.iew.iewDispNonSpecInsts                130                       # Number of dispatched non-speculative instructions
system.cpu.iew.iewDispSquashedInsts                 0                       # Number of squashed instructions skipped by dispatch
system.cpu.iew.iewDispStoreInsts             35218246                       # Number of dispatched store instructions
system.cpu.iew.iewDispatchedInsts           442784605                       # Number of instructions dispatched to IQ
system.cpu.iew.iewExecLoadInsts::0           25592639                       # Number of load instructions executed
system.cpu.iew.iewExecLoadInsts::1           25595362                       # Number of load instructions executed
system.cpu.iew.iewExecLoadInsts::total       51188001                       # Number of load instructions executed
system.cpu.iew.iewExecSquashedInsts           2583735                       # Number of squashed instructions skipped in execute
system.cpu.iew.iewExecutedInsts             413242359                       # Number of executed instructions
system.cpu.iew.iewIQFullEvents                 163974                       # Number of times the IQ has become full, causing a stall
system.cpu.iew.iewIdleCycles                        0                       # Number of cycles IEW is idle
system.cpu.iew.iewLSQFullEvents                 41905                       # Number of times the LSQ has become full, causing a stall
system.cpu.iew.iewSquashCycles                1729150                       # Number of cycles IEW is squashing
system.cpu.iew.iewUnblockCycles                483289                       # Number of cycles IEW is unblocking
system.cpu.iew.memOrderViolationEvents           2809                       # Number of memory order violations
system.cpu.iew.predictedNotTakenIncorrect      1377750                       # Number of branches that were predicted not taken incorrectly
system.cpu.iew.predictedTakenIncorrect         584268                       # Number of branches that were predicted taken incorrectly
system.cpu.iew.wb_consumers::0              242039576                       # num instructions consuming a value
system.cpu.iew.wb_consumers::1              241875431                       # num instructions consuming a value
system.cpu.iew.wb_consumers::total          483915007                       # num instructions consuming a value
system.cpu.iew.wb_count::0                  206067390                       # cumulative count of insts written-back
system.cpu.iew.wb_count::1                  206106507                       # cumulative count of insts written-back
system.cpu.iew.wb_count::total              412173897                       # cumulative count of insts written-back
system.cpu.iew.wb_fanout::0                  0.604294                       # average fanout of values written-back
system.cpu.iew.wb_fanout::1                  0.604707                       # average fanout of values written-back
system.cpu.iew.wb_fanout::total              0.604500                       # average fanout of values written-back
system.cpu.iew.wb_producers::0              146262955                       # num instructions producing a value
system.cpu.iew.wb_producers::1              146263797                       # num instructions producing a value
system.cpu.iew.wb_producers::total          292526752                       # num instructions producing a value
system.cpu.iew.wb_rate::0                    1.504025                       # insts written-back per cycle
system.cpu.iew.wb_rate::1                    1.504311                       # insts written-back per cycle
system.cpu.iew.wb_rate::total                3.008336                       # insts written-back per cycle
system.cpu.iew.wb_sent::0                   206119015                       # cumulative count of insts sent to commit
system.cpu.iew.wb_sent::1                   206161369                       # cumulative count of insts sent to commit
system.cpu.iew.wb_sent::total               412280384                       # cumulative count of insts sent to commit
system.cpu.int_regfile_reads                635684394                       # number of integer regfile reads
system.cpu.int_regfile_writes               328714065                       # number of integer regfile writes
system.cpu.ipc::0                            0.729871                       # IPC: Instructions Per Cycle
system.cpu.ipc::1                            0.729871                       # IPC: Instructions Per Cycle
system.cpu.ipc_total                         1.459741                       # IPC: Total IPC of All Threads
system.cpu.iq.FU_type_0::No_OpClass           1763276      0.84%      0.84% # Type of FU issued
system.cpu.iq.FU_type_0::IntAlu             159100450     75.89%     76.73% # Type of FU issued
system.cpu.iq.FU_type_0::IntMult               998271      0.48%     77.21% # Type of FU issued
system.cpu.iq.FU_type_0::IntDiv                803972      0.38%     77.59% # Type of FU issued
system.cpu.iq.FU_type_0::FloatAdd              522416      0.25%     77.84% # Type of FU issued
system.cpu.iq.FU_type_0::FloatCmp                   0      0.00%     77.84% # Type of FU issued
system.cpu.iq.FU_type_0::FloatCvt                  32      0.00%     77.84% # Type of FU issued
system.cpu.iq.FU_type_0::FloatMult                  0      0.00%     77.84% # Type of FU issued
system.cpu.iq.FU_type_0::FloatMultAcc               0      0.00%     77.84% # Type of FU issued
system.cpu.iq.FU_type_0::FloatDiv                   0      0.00%     77.84% # Type of FU issued
system.cpu.iq.FU_type_0::FloatMisc                  0      0.00%     77.84% # Type of FU issued
system.cpu.iq.FU_type_0::FloatSqrt                  0      0.00%     77.84% # Type of FU issued
system.cpu.iq.FU_type_0::SimdAdd                  463      0.00%     77.84% # Type of FU issued
system.cpu.iq.FU_type_0::SimdAddAcc                 0      0.00%     77.84% # Type of FU issued
system.cpu.iq.FU_type_0::SimdAlu                97853      0.05%     77.89% # Type of FU issued
system.cpu.iq.FU_type_0::SimdCmp                   20      0.00%     77.89% # Type of FU issued
system.cpu.iq.FU_type_0::SimdCvt               448550      0.21%     78.10% # Type of FU issued
system.cpu.iq.FU_type_0::SimdMisc             1260664      0.60%     78.70% # Type of FU issued
system.cpu.iq.FU_type_0::SimdMult                   0      0.00%     78.70% # Type of FU issued
system.cpu.iq.FU_type_0::SimdMultAcc                0      0.00%     78.70% # Type of FU issued
system.cpu.iq.FU_type_0::SimdShift                120      0.00%     78.70% # Type of FU issued
system.cpu.iq.FU_type_0::SimdShiftAcc               0      0.00%     78.70% # Type of FU issued
system.cpu.iq.FU_type_0::SimdDiv                    0      0.00%     78.70% # Type of FU issued
system.cpu.iq.FU_type_0::SimdSqrt                   0      0.00%     78.70% # Type of FU issued
system.cpu.iq.FU_type_0::SimdFloatAdd               0      0.00%     78.70% # Type of FU issued
system.cpu.iq.FU_type_0::SimdFloatAlu               0      0.00%     78.70% # Type of FU issued
system.cpu.iq.FU_type_0::SimdFloatCmp               0      0.00%     78.70% # Type of FU issued
system.cpu.iq.FU_type_0::SimdFloatCvt               4      0.00%     78.70% # Type of FU issued
system.cpu.iq.FU_type_0::SimdFloatDiv               0      0.00%     78.70% # Type of FU issued
system.cpu.iq.FU_type_0::SimdFloatMisc              0      0.00%     78.70% # Type of FU issued
system.cpu.iq.FU_type_0::SimdFloatMult              2      0.00%     78.70% # Type of FU issued
system.cpu.iq.FU_type_0::SimdFloatMultAcc            0      0.00%     78.70% # Type of FU issued
system.cpu.iq.FU_type_0::SimdFloatSqrt              0      0.00%     78.70% # Type of FU issued
system.cpu.iq.FU_type_0::SimdReduceAdd              0      0.00%     78.70% # Type of FU issued
system.cpu.iq.FU_type_0::SimdReduceAlu              0      0.00%     78.70% # Type of FU issued
system.cpu.iq.FU_type_0::SimdReduceCmp              0      0.00%     78.70% # Type of FU issued
system.cpu.iq.FU_type_0::SimdFloatReduceAdd            0      0.00%     78.70% # Type of FU issued
system.cpu.iq.FU_type_0::SimdFloatReduceCmp            0      0.00%     78.70% # Type of FU issued
system.cpu.iq.FU_type_0::SimdAes                    0      0.00%     78.70% # Type of FU issued
system.cpu.iq.FU_type_0::SimdAesMix                 0      0.00%     78.70% # Type of FU issued
system.cpu.iq.FU_type_0::SimdSha1Hash               0      0.00%     78.70% # Type of FU issued
system.cpu.iq.FU_type_0::SimdSha1Hash2              0      0.00%     78.70% # Type of FU issued
system.cpu.iq.FU_type_0::SimdSha256Hash             0      0.00%     78.70% # Type of FU issued
system.cpu.iq.FU_type_0::SimdSha256Hash2            0      0.00%     78.70% # Type of FU issued
system.cpu.iq.FU_type_0::SimdShaSigma2              0      0.00%     78.70% # Type of FU issued
system.cpu.iq.FU_type_0::SimdShaSigma3              0      0.00%     78.70% # Type of FU issued
system.cpu.iq.FU_type_0::SimdPredAlu                0      0.00%     78.70% # Type of FU issued
system.cpu.iq.FU_type_0::MemRead             25860610     12.34%     91.04% # Type of FU issued
system.cpu.iq.FU_type_0::MemWrite            16139037      7.70%     98.73% # Type of FU issued
system.cpu.iq.FU_type_0::FloatMemRead         1191654      0.57%     99.30% # Type of FU issued
system.cpu.iq.FU_type_0::FloatMemWrite        1460718      0.70%    100.00% # Type of FU issued
system.cpu.iq.FU_type_0::IprAccess                  0      0.00%    100.00% # Type of FU issued
system.cpu.iq.FU_type_0::InstPrefetch               0      0.00%    100.00% # Type of FU issued
system.cpu.iq.FU_type_0::total              209648112                       # Type of FU issued
system.cpu.iq.FU_type_1::No_OpClass           1763150      0.84%      0.84% # Type of FU issued
system.cpu.iq.FU_type_1::IntAlu             159168901     75.93%     76.77% # Type of FU issued
system.cpu.iq.FU_type_1::IntMult               996176      0.48%     77.24% # Type of FU issued
system.cpu.iq.FU_type_1::IntDiv                803981      0.38%     77.63% # Type of FU issued
system.cpu.iq.FU_type_1::FloatAdd              523091      0.25%     77.88% # Type of FU issued
system.cpu.iq.FU_type_1::FloatCmp                   0      0.00%     77.88% # Type of FU issued
system.cpu.iq.FU_type_1::FloatCvt                  32      0.00%     77.88% # Type of FU issued
system.cpu.iq.FU_type_1::FloatMult                  0      0.00%     77.88% # Type of FU issued
system.cpu.iq.FU_type_1::FloatMultAcc               0      0.00%     77.88% # Type of FU issued
system.cpu.iq.FU_type_1::FloatDiv                   0      0.00%     77.88% # Type of FU issued
system.cpu.iq.FU_type_1::FloatMisc                  0      0.00%     77.88% # Type of FU issued
system.cpu.iq.FU_type_1::FloatSqrt                  0      0.00%     77.88% # Type of FU issued
system.cpu.iq.FU_type_1::SimdAdd                  471      0.00%     77.88% # Type of FU issued
system.cpu.iq.FU_type_1::SimdAddAcc                 0      0.00%     77.88% # Type of FU issued
system.cpu.iq.FU_type_1::SimdAlu                97863      0.05%     77.92% # Type of FU issued
system.cpu.iq.FU_type_1::SimdCmp                   20      0.00%     77.92% # Type of FU issued
system.cpu.iq.FU_type_1::SimdCvt               447087      0.21%     78.14% # Type of FU issued
system.cpu.iq.FU_type_1::SimdMisc             1260194      0.60%     78.74% # Type of FU issued
system.cpu.iq.FU_type_1::SimdMult                   0      0.00%     78.74% # Type of FU issued
system.cpu.iq.FU_type_1::SimdMultAcc                0      0.00%     78.74% # Type of FU issued
system.cpu.iq.FU_type_1::SimdShift                118      0.00%     78.74% # Type of FU issued
system.cpu.iq.FU_type_1::SimdShiftAcc               0      0.00%     78.74% # Type of FU issued
system.cpu.iq.FU_type_1::SimdDiv                    0      0.00%     78.74% # Type of FU issued
system.cpu.iq.FU_type_1::SimdSqrt                   0      0.00%     78.74% # Type of FU issued
system.cpu.iq.FU_type_1::SimdFloatAdd               0      0.00%     78.74% # Type of FU issued
system.cpu.iq.FU_type_1::SimdFloatAlu               0      0.00%     78.74% # Type of FU issued
system.cpu.iq.FU_type_1::SimdFloatCmp               0      0.00%     78.74% # Type of FU issued
system.cpu.iq.FU_type_1::SimdFloatCvt               4      0.00%     78.74% # Type of FU issued
system.cpu.iq.FU_type_1::SimdFloatDiv               0      0.00%     78.74% # Type of FU issued
system.cpu.iq.FU_type_1::SimdFloatMisc              0      0.00%     78.74% # Type of FU issued
system.cpu.iq.FU_type_1::SimdFloatMult              2      0.00%     78.74% # Type of FU issued
system.cpu.iq.FU_type_1::SimdFloatMultAcc            0      0.00%     78.74% # Type of FU issued
system.cpu.iq.FU_type_1::SimdFloatSqrt              0      0.00%     78.74% # Type of FU issued
system.cpu.iq.FU_type_1::SimdReduceAdd              0      0.00%     78.74% # Type of FU issued
system.cpu.iq.FU_type_1::SimdReduceAlu              0      0.00%     78.74% # Type of FU issued
system.cpu.iq.FU_type_1::SimdReduceCmp              0      0.00%     78.74% # Type of FU issued
system.cpu.iq.FU_type_1::SimdFloatReduceAdd            0      0.00%     78.74% # Type of FU issued
system.cpu.iq.FU_type_1::SimdFloatReduceCmp            0      0.00%     78.74% # Type of FU issued
system.cpu.iq.FU_type_1::SimdAes                    0      0.00%     78.74% # Type of FU issued
system.cpu.iq.FU_type_1::SimdAesMix                 0      0.00%     78.74% # Type of FU issued
system.cpu.iq.FU_type_1::SimdSha1Hash               0      0.00%     78.74% # Type of FU issued
system.cpu.iq.FU_type_1::SimdSha1Hash2              0      0.00%     78.74% # Type of FU issued
system.cpu.iq.FU_type_1::SimdSha256Hash             0      0.00%     78.74% # Type of FU issued
system.cpu.iq.FU_type_1::SimdSha256Hash2            0      0.00%     78.74% # Type of FU issued
system.cpu.iq.FU_type_1::SimdShaSigma2              0      0.00%     78.74% # Type of FU issued
system.cpu.iq.FU_type_1::SimdShaSigma3              0      0.00%     78.74% # Type of FU issued
system.cpu.iq.FU_type_1::SimdPredAlu                0      0.00%     78.74% # Type of FU issued
system.cpu.iq.FU_type_1::MemRead             25714463     12.27%     91.00% # Type of FU issued
system.cpu.iq.FU_type_1::MemWrite            16212230      7.73%     98.74% # Type of FU issued
system.cpu.iq.FU_type_1::FloatMemRead         1187093      0.57%     99.30% # Type of FU issued
system.cpu.iq.FU_type_1::FloatMemWrite        1460935      0.70%    100.00% # Type of FU issued
system.cpu.iq.FU_type_1::IprAccess                  0      0.00%    100.00% # Type of FU issued
system.cpu.iq.FU_type_1::InstPrefetch               0      0.00%    100.00% # Type of FU issued
system.cpu.iq.FU_type_1::total              209635811                       # Type of FU issued
system.cpu.iq.FU_type::total                419283923      0.00%      0.00% # Type of FU issued
system.cpu.iq.fp_alu_accesses                16884588                       # Number of floating point alu accesses
system.cpu.iq.fp_inst_queue_reads            27593633                       # Number of floating instruction queue reads
system.cpu.iq.fp_inst_queue_wakeup_accesses      9992268                       # Number of floating instruction queue wakeup accesses
system.cpu.iq.fp_inst_queue_writes           13451056                       # Number of floating instruction queue writes
system.cpu.iq.fu_busy_cnt::0                117147966                       # FU busy when requested
system.cpu.iq.fu_busy_cnt::1                117459317                       # FU busy when requested
system.cpu.iq.fu_busy_cnt::total            234607283                       # FU busy when requested
system.cpu.iq.fu_busy_rate::0                0.279400                       # FU busy rate (busy events/executed inst)
system.cpu.iq.fu_busy_rate::1                0.280143                       # FU busy rate (busy events/executed inst)
system.cpu.iq.fu_busy_rate::total            0.559543                       # FU busy rate (busy events/executed inst)
system.cpu.iq.fu_full::No_OpClass                   0      0.00%      0.00% # attempts to use FU when none available
system.cpu.iq.fu_full::IntAlu               137258543     58.51%     58.51% # attempts to use FU when none available
system.cpu.iq.fu_full::IntMult                 352589      0.15%     58.66% # attempts to use FU when none available
system.cpu.iq.fu_full::IntDiv                 7131136      3.04%     61.70% # attempts to use FU when none available
system.cpu.iq.fu_full::FloatAdd                469244      0.20%     61.90% # attempts to use FU when none available
system.cpu.iq.fu_full::FloatCmp                     0      0.00%     61.90% # attempts to use FU when none available
system.cpu.iq.fu_full::FloatCvt                    27      0.00%     61.90% # attempts to use FU when none available
system.cpu.iq.fu_full::FloatMult                    0      0.00%     61.90% # attempts to use FU when none available
system.cpu.iq.fu_full::FloatMultAcc                 0      0.00%     61.90% # attempts to use FU when none available
system.cpu.iq.fu_full::FloatDiv                     0      0.00%     61.90% # attempts to use FU when none available
system.cpu.iq.fu_full::FloatMisc                    0      0.00%     61.90% # attempts to use FU when none available
system.cpu.iq.fu_full::FloatSqrt                    0      0.00%     61.90% # attempts to use FU when none available
system.cpu.iq.fu_full::SimdAdd                    836      0.00%     61.90% # attempts to use FU when none available
system.cpu.iq.fu_full::SimdAddAcc                   0      0.00%     61.90% # attempts to use FU when none available
system.cpu.iq.fu_full::SimdAlu                  37022      0.02%     61.91% # attempts to use FU when none available
system.cpu.iq.fu_full::SimdCmp                     40      0.00%     61.91% # attempts to use FU when none available
system.cpu.iq.fu_full::SimdCvt                1150723      0.49%     62.40% # attempts to use FU when none available
system.cpu.iq.fu_full::SimdMisc               1541273      0.66%     63.06% # attempts to use FU when none available
system.cpu.iq.fu_full::SimdMult                     0      0.00%     63.06% # attempts to use FU when none available
system.cpu.iq.fu_full::SimdMultAcc                  0      0.00%     63.06% # attempts to use FU when none available
system.cpu.iq.fu_full::SimdShift                  151      0.00%     63.06% # attempts to use FU when none available
system.cpu.iq.fu_full::SimdShiftAcc                 0      0.00%     63.06% # attempts to use FU when none available
system.cpu.iq.fu_full::SimdDiv                      0      0.00%     63.06% # attempts to use FU when none available
system.cpu.iq.fu_full::SimdSqrt                     0      0.00%     63.06% # attempts to use FU when none available
system.cpu.iq.fu_full::SimdFloatAdd                 0      0.00%     63.06% # attempts to use FU when none available
system.cpu.iq.fu_full::SimdFloatAlu                 0      0.00%     63.06% # attempts to use FU when none available
system.cpu.iq.fu_full::SimdFloatCmp                 0      0.00%     63.06% # attempts to use FU when none available
system.cpu.iq.fu_full::SimdFloatCvt                 8      0.00%     63.06% # attempts to use FU when none available
system.cpu.iq.fu_full::SimdFloatDiv                 0      0.00%     63.06% # attempts to use FU when none available
system.cpu.iq.fu_full::SimdFloatMisc                0      0.00%     63.06% # attempts to use FU when none available
system.cpu.iq.fu_full::SimdFloatMult                4      0.00%     63.06% # attempts to use FU when none available
system.cpu.iq.fu_full::SimdFloatMultAcc             0      0.00%     63.06% # attempts to use FU when none available
system.cpu.iq.fu_full::SimdFloatSqrt                0      0.00%     63.06% # attempts to use FU when none available
system.cpu.iq.fu_full::SimdReduceAdd                0      0.00%     63.06% # attempts to use FU when none available
system.cpu.iq.fu_full::SimdReduceAlu                0      0.00%     63.06% # attempts to use FU when none available
system.cpu.iq.fu_full::SimdReduceCmp                0      0.00%     63.06% # attempts to use FU when none available
system.cpu.iq.fu_full::SimdFloatReduceAdd            0      0.00%     63.06% # attempts to use FU when none available
system.cpu.iq.fu_full::SimdFloatReduceCmp            0      0.00%     63.06% # attempts to use FU when none available
system.cpu.iq.fu_full::SimdAes                      0      0.00%     63.06% # attempts to use FU when none available
system.cpu.iq.fu_full::SimdAesMix                   0      0.00%     63.06% # attempts to use FU when none available
system.cpu.iq.fu_full::SimdSha1Hash                 0      0.00%     63.06% # attempts to use FU when none available
system.cpu.iq.fu_full::SimdSha1Hash2                0      0.00%     63.06% # attempts to use FU when none available
system.cpu.iq.fu_full::SimdSha256Hash               0      0.00%     63.06% # attempts to use FU when none available
system.cpu.iq.fu_full::SimdSha256Hash2              0      0.00%     63.06% # attempts to use FU when none available
system.cpu.iq.fu_full::SimdShaSigma2                0      0.00%     63.06% # attempts to use FU when none available
system.cpu.iq.fu_full::SimdShaSigma3                0      0.00%     63.06% # attempts to use FU when none available
system.cpu.iq.fu_full::SimdPredAlu                  0      0.00%     63.06% # attempts to use FU when none available
system.cpu.iq.fu_full::MemRead               50683819     21.60%     84.66% # attempts to use FU when none available
system.cpu.iq.fu_full::MemWrite              35981868     15.34%    100.00% # attempts to use FU when none available
system.cpu.iq.fu_full::FloatMemRead                 0      0.00%    100.00% # attempts to use FU when none available
system.cpu.iq.fu_full::FloatMemWrite                0      0.00%    100.00% # attempts to use FU when none available
system.cpu.iq.fu_full::IprAccess                    0      0.00%    100.00% # attempts to use FU when none available
system.cpu.iq.fu_full::InstPrefetch                 0      0.00%    100.00% # attempts to use FU when none available
system.cpu.iq.int_alu_accesses              867474210                       # Number of integer alu accesses
system.cpu.iq.int_inst_queue_reads         1423376674                       # Number of integer instruction queue reads
system.cpu.iq.int_inst_queue_wakeup_accesses    402181629                       # Number of integer instruction queue wakeup accesses
system.cpu.iq.int_inst_queue_writes         494007314                       # Number of integer instruction queue writes
system.cpu.iq.iqInstsAdded                  442784296                       # Number of instructions added to the IQ (excludes non-spec)
system.cpu.iq.iqInstsIssued                 419283923                       # Number of instructions issued
system.cpu.iq.iqNonSpecInstsAdded                 309                       # Number of non-speculative instructions added to the IQ
system.cpu.iq.iqSquashedInstsExamined        64670956                       # Number of squashed instructions iterated over during squash; mainly for profiling
system.cpu.iq.iqSquashedInstsIssued           6858486                       # Number of squashed instructions issued
system.cpu.iq.iqSquashedNonSpecRemoved            177                       # Number of squashed non-spec instructions that were removed
system.cpu.iq.iqSquashedOperandsExamined     98200324                       # Number of squashed operands that are examined and possibly removed from graph
system.cpu.iq.issued_per_cycle::samples     136942674                       # Number of insts issued each cycle
system.cpu.iq.issued_per_cycle::mean         3.061748                       # Number of insts issued each cycle
system.cpu.iq.issued_per_cycle::stdev        1.990206                       # Number of insts issued each cycle
system.cpu.iq.issued_per_cycle::underflows            0      0.00%      0.00% # Number of insts issued each cycle
system.cpu.iq.issued_per_cycle::0            24344560     17.78%     17.78% # Number of insts issued each cycle
system.cpu.iq.issued_per_cycle::1            14545351     10.62%     28.40% # Number of insts issued each cycle
system.cpu.iq.issued_per_cycle::2            12042382      8.79%     37.19% # Number of insts issued each cycle
system.cpu.iq.issued_per_cycle::3            14698769     10.73%     47.93% # Number of insts issued each cycle
system.cpu.iq.issued_per_cycle::4            32304074     23.59%     71.52% # Number of insts issued each cycle
system.cpu.iq.issued_per_cycle::5            28286594     20.66%     92.17% # Number of insts issued each cycle
system.cpu.iq.issued_per_cycle::6             9437947      6.89%     99.06% # Number of insts issued each cycle
system.cpu.iq.issued_per_cycle::7              983423      0.72%     99.78% # Number of insts issued each cycle
system.cpu.iq.issued_per_cycle::8              299574      0.22%    100.00% # Number of insts issued each cycle
system.cpu.iq.issued_per_cycle::overflows            0      0.00%    100.00% # Number of insts issued each cycle
system.cpu.iq.issued_per_cycle::min_value            0                       # Number of insts issued each cycle
system.cpu.iq.issued_per_cycle::max_value            8                       # Number of insts issued each cycle
system.cpu.iq.issued_per_cycle::total       136942674                       # Number of insts issued each cycle
system.cpu.iq.rate                           3.060230                       # Inst issue rate
system.cpu.iq.vec_alu_accesses                      0                       # Number of vector alu accesses
system.cpu.iq.vec_inst_queue_reads                  0                       # Number of vector instruction queue reads
system.cpu.iq.vec_inst_queue_wakeup_accesses            0                       # Number of vector instruction queue wakeup accesses
system.cpu.iq.vec_inst_queue_writes                 0                       # Number of vector instruction queue writes
system.cpu.memDep0.conflictingLoads            764611                       # Number of conflicting loads.
system.cpu.memDep0.conflictingStores           144686                       # Number of conflicting stores.
system.cpu.memDep0.insertedLoads             27213543                       # Number of loads inserted to the mem dependence unit.
system.cpu.memDep0.insertedStores            17609889                       # Number of stores inserted to the mem dependence unit.
system.cpu.memDep1.conflictingLoads            765433                       # Number of conflicting loads.
system.cpu.memDep1.conflictingStores           145082                       # Number of conflicting stores.
system.cpu.memDep1.insertedLoads             27196977                       # Number of loads inserted to the mem dependence unit.
system.cpu.memDep1.insertedStores            17608357                       # Number of stores inserted to the mem dependence unit.
system.cpu.misc_regfile_reads               181214630                       # number of misc regfile reads
system.cpu.misc_regfile_writes                     36                       # number of misc regfile writes
system.cpu.numCycles                        137010604                       # number of cpu cycles simulated
system.cpu.numWorkItemsCompleted                    0                       # number of work items this cpu completed
system.cpu.numWorkItemsStarted                      0                       # number of work items this cpu started
system.cpu.timesIdled                            1200                       # Number of times that the entire CPU went into an idle state and unscheduled itself
system.cpu.workload0.numSyscalls                  128                       # Number of system calls
system.cpu.workload1.numSyscalls                  128                       # Number of system calls
system.membus.snoop_filter.hit_multi_requests            0                       # Number of requests hitting in the snoop filter with multiple (>1) holders of the requested data.
system.membus.snoop_filter.hit_multi_snoops            0                       # Number of snoops hitting in the snoop filter with multiple (>1) holders of the requested data.
system.membus.snoop_filter.hit_single_requests       349849                       # Number of requests hitting in the snoop filter with a single holder of the requested data.
system.membus.snoop_filter.hit_single_snoops            0                       # Number of snoops hitting in the snoop filter with a single holder of the requested data.
system.membus.snoop_filter.tot_requests        765751                       # Total number of requests made to the snoop filter.
system.membus.snoop_filter.tot_snoops               0                       # Total number of snoops made to the snoop filter.
system.tol2bus.snoop_filter.hit_multi_requests           16                       # Number of requests hitting in the snoop filter with multiple (>1) holders of the requested data.
system.tol2bus.snoop_filter.hit_multi_snoops            0                       # Number of snoops hitting in the snoop filter with multiple (>1) holders of the requested data.
system.tol2bus.snoop_filter.hit_single_requests       973824                       # Number of requests hitting in the snoop filter with a single holder of the requested data.
system.tol2bus.snoop_filter.hit_single_snoops         1079                       # Number of snoops hitting in the snoop filter with a single holder of the requested data.
system.tol2bus.snoop_filter.tot_requests      1948334                       # Total number of requests made to the snoop filter.
system.tol2bus.snoop_filter.tot_snoops           1079                       # Total number of snoops made to the snoop filter.
sim_insts                                   200000022                       # Number of instructions simulated
sim_ops                                     378113603                       # Number of ops (including micro ops) simulated
host_inst_rate                                 204072                       # Simulator instruction rate (inst/s)
host_op_rate                                   385812                       # Simulator op (including micro ops) rate (op/s)
system.clk_domain.clock                          1000                       # Clock period in ticks
system.cpu.branchPred.lookups                55517079                       # Number of BP lookups
system.cpu.branchPred.condPredicted          46191595                       # Number of conditional branches predicted
system.cpu.branchPred.condIncorrect           2194707                       # Number of conditional branches incorrect
system.cpu.branchPred.BTBLookups             20796061                       # Number of BTB lookups
system.cpu.branchPred.BTBHits                19677191                       # Number of BTB hits
system.cpu.branchPred.BTBHitPct             94.619798                       # BTB Hit Percentage
system.cpu.branchPred.RASUsed                 2375848                       # Number of times the RAS was used to get a target.
system.cpu.branchPred.RASIncorrect                  6                       # Number of incorrect RAS predictions.
system.cpu.branchPred.indirectLookups         1281850                       # Number of indirect predictor lookups.
system.cpu.branchPred.indirectHits             996595                       # Number of indirect target hits.
system.cpu.branchPred.indirectMisses           285255                       # Number of indirect misses.
system.cpu.branchPred.indirectMispredicted          619                       # Number of mispredicted indirect branches.
system.cpu.branchPred.power_state.pwrStateResidencyTicks::UNDEFINED  68505301500                       # Cumulative time (in ticks) in various power states
system.cpu.commit.commitSquashedInsts        61816139                       # The number of squashed insts skipped by commit
system.cpu.commit.commitNonSpecStalls             132                       # The number of times commit has been forced to stall to communicate backwards
system.cpu.commit.branchMispredicts           1719859                       # The number of times a branch was mispredicted
system.cpu.commit.numCommittedDist::samples    136708925                       # Number of insts commited each cycle
system.cpu.commit.numCommittedDist::mean     2.765830                       # Number of insts commited each cycle
system.cpu.commit.numCommittedDist::stdev     3.016069                       # Number of insts commited each cycle
system.cpu.commit.numCommittedDist::underflows            0      0.00%      0.00% # Number of insts commited each cycle
system.cpu.commit.numCommittedDist::0        53007752     38.77%     38.77% # Number of insts commited each cycle
system.cpu.commit.numCommittedDist::1        14119555     10.33%     49.10% # Number of insts commited each cycle
system.cpu.commit.numCommittedDist::2         9645658      7.06%     56.16% # Number of insts commited each cycle
system.cpu.commit.numCommittedDist::3        13628907      9.97%     66.13% # Number of insts commited each cycle
system.cpu.commit.numCommittedDist::4         8371065      6.12%     72.25% # Number of insts commited each cycle
system.cpu.commit.numCommittedDist::5         6119017      4.48%     76.73% # Number of insts commited each cycle
system.cpu.commit.numCommittedDist::6         6409898      4.69%     81.42% # Number of insts commited each cycle
system.cpu.commit.numCommittedDist::7         1979306      1.45%     82.86% # Number of insts commited each cycle
system.cpu.commit.numCommittedDist::8        23427767     17.14%    100.00% # Number of insts commited each cycle
system.cpu.commit.numCommittedDist::overflows            0      0.00%    100.00% # Number of insts commited each cycle
system.cpu.commit.numCommittedDist::min_value            0                       # Number of insts commited each cycle
system.cpu.commit.numCommittedDist::max_value            8                       # Number of insts commited each cycle
system.cpu.commit.numCommittedDist::total    136708925                       # Number of insts commited each cycle
system.cpu.commit.instsCommitted::0         100000022                       # Number of instructions committed
system.cpu.commit.instsCommitted::1         100000000                       # Number of instructions committed
system.cpu.commit.instsCommitted::total     200000022                       # Number of instructions committed
system.cpu.commit.opsCommitted::0           189056823                       # Number of ops (including micro ops) committed
system.cpu.commit.opsCommitted::1           189056780                       # Number of ops (including micro ops) committed
system.cpu.commit.opsCommitted::total       378113603                       # Number of ops (including micro ops) committed
system.cpu.commit.memRefs::0                 38145143                       # Number of memory references committed
system.cpu.commit.memRefs::1                 38145142                       # Number of memory references committed
system.cpu.commit.memRefs::total             76290285                       # Number of memory references committed
system.cpu.commit.loads::0                   22524407                       # Number of loads committed
system.cpu.commit.loads::1                   22524406                       # Number of loads committed
system.cpu.commit.loads::total               45048813                       # Number of loads committed
system.cpu.commit.amos::0                           0                       # Number of atomic instructions committed
system.cpu.commit.amos::1                           0                       # Number of atomic instructions committed
system.cpu.commit.amos::total                       0                       # Number of atomic instructions committed
system.cpu.commit.membars::0                       32                       # Number of memory barriers committed
system.cpu.commit.membars::1                       32                       # Number of memory barriers committed
system.cpu.commit.membars::total                   64                       # Number of memory barriers committed
system.cpu.commit.branches::0                21608770                       # Number of branches committed
system.cpu.commit.branches::1                21608762                       # Number of branches committed
system.cpu.commit.branches::total            43217532                       # Number of branches committed
system.cpu.commit.vector::0                         0                       # Number of committed Vector instructions.
system.cpu.commit.vector::1                         0                       # Number of committed Vector instructions.
system.cpu.commit.vector::total                     0                       # Number of committed Vector instructions.
system.cpu.commit.floating::0                 4315334                       # Number of committed floating point instructions.
system.cpu.commit.floating::1                 4315334                       # Number of committed floating point instructions.
system.cpu.commit.floating::total             8630668                       # Number of committed floating point instructions.
system.cpu.commit.integer::0                185704145                       # Number of committed integer instructions.
system.cpu.commit.integer::1                185704102                       # Number of committed integer instructions.
system.cpu.commit.integer::total            371408247                       # Number of committed integer instructions.
system.cpu.commit.functionCalls::0             987396                       # Number of function calls committed.
system.cpu.commit.functionCalls::1             987396                       # Number of function calls committed.
system.cpu.commit.functionCalls::total        1974792                       # Number of function calls committed.
system.cpu.commit.committedInstType_0::No_OpClass      1714802      0.91%      0.91% # Class of committed instruction
system.cpu.commit.committedInstType_0::IntAlu    145602574     77.02%     77.92% # Class of committed instruction
system.cpu.commit.committedInstType_0::IntMult       913990      0.48%     78.41% # Class of committed instruction
system.cpu.commit.committedInstType_0::IntDiv       797005      0.42%     78.83% # Class of committed instruction
system.cpu.commit.committedInstType_0::FloatAdd       431712      0.23%     79.06% # Class of committed instruction
system.cpu.commit.committedInstType_0::FloatCmp            0      0.00%     79.06% # Class of committed instruction
system.cpu.commit.committedInstType_0::FloatCvt           32      0.00%     79.06% # Class of committed instruction
system.cpu.commit.committedInstType_0::FloatMult            0      0.00%     79.06% # Class of committed instruction
system.cpu.commit.committedInstType_0::FloatMultAcc            0      0.00%     79.06% # Class of committed instruction
system.cpu.commit.committedInstType_0::FloatDiv            0      0.00%     79.06% # Class of committed instruction
system.cpu.commit.committedInstType_0::FloatMisc            0      0.00%     79.06% # Class of committed instruction
system.cpu.commit.committedInstType_0::FloatSqrt            0      0.00%     79.06% # Class of committed instruction
system.cpu.commit.committedInstType_0::SimdAdd          400      0.00%     79.06% # Class of committed instruction
system.cpu.commit.committedInstType_0::SimdAddAcc            0      0.00%     79.06% # Class of committed instruction
system.cpu.commit.committedInstType_0::SimdAlu        97180      0.05%     79.11% # Class of committed instruction
system.cpu.commit.committedInstType_0::SimdCmp           20      0.00%     79.11% # Class of committed instruction
system.cpu.commit.committedInstType_0::SimdCvt       255878      0.14%     79.24% # Class of committed instruction
system.cpu.commit.committedInstType_0::SimdMisc      1097969      0.58%     79.82% # Class of committed instruction
system.cpu.commit.committedInstType_0::SimdMult            0      0.00%     79.82% # Class of committed instruction
system.cpu.commit.committedInstType_0::SimdMultAcc            0      0.00%     79.82% # Class of committed instruction
system.cpu.commit.committedInstType_0::SimdShift          112      0.00%     79.82% # Class of committed instruction
system.cpu.commit.committedInstType_0::SimdShiftAcc            0      0.00%     79.82% # Class of committed instruction
system.cpu.commit.committedInstType_0::SimdDiv            0      0.00%     79.82% # Class of committed instruction
system.cpu.commit.committedInstType_0::SimdSqrt            0      0.00%     79.82% # Class of committed instruction
system.cpu.commit.committedInstType_0::SimdFloatAdd            0      0.00%     79.82% # Class of committed instruction
system.cpu.commit.committedInstType_0::SimdFloatAlu            0      0.00%     79.82% # Class of committed instruction
system.cpu.commit.committedInstType_0::SimdFloatCmp            0      0.00%     79.82% # Class of committed instruction
system.cpu.commit.committedInstType_0::SimdFloatCvt            4      0.00%     79.82% # Class of committed instruction
system.cpu.commit.committedInstType_0::SimdFloatDiv            0      0.00%     79.82% # Class of committed instruction
system.cpu.commit.committedInstType_0::SimdFloatMisc            0      0.00%     79.82% # Class of committed instruction
system.cpu.commit.committedInstType_0::SimdFloatMult            2      0.00%     79.82% # Class of committed instruction
system.cpu.commit.committedInstType_0::SimdFloatMultAcc            0      0.00%     79.82% # Class of committed instruction
system.cpu.commit.committedInstType_0::SimdFloatSqrt            0      0.00%     79.82% # Class of committed instruction
system.cpu.commit.committedInstType_0::SimdReduceAdd            0      0.00%     79.82% # Class of committed instruction
system.cpu.commit.committedInstType_0::SimdReduceAlu            0      0.00%     79.82% # Class of committed instruction
system.cpu.commit.committedInstType_0::SimdReduceCmp            0      0.00%     79.82% # Class of committed instruction
system.cpu.commit.committedInstType_0::SimdFloatReduceAdd            0      0.00%     79.82% # Class of committed instruction
system.cpu.commit.committedInstType_0::SimdFloatReduceCmp            0      0.00%     79.82% # Class of committed instruction
system.cpu.commit.committedInstType_0::SimdAes            0      0.00%     79.82% # Class of committed instruction
system.cpu.commit.committedInstType_0::SimdAesMix            0      0.00%     79.82% # Class of committed instruction
system.cpu.commit.committedInstType_0::SimdSha1Hash            0      0.00%     79.82% # Class of committed instruction
system.cpu.commit.committedInstType_0::SimdSha1Hash2            0      0.00%     79.82% # Class of committed instruction
system.cpu.commit.committedInstType_0::SimdSha256Hash            0      0.00%     79.82% # Class of committed instruction
system.cpu.commit.committedInstType_0::SimdSha256Hash2            0      0.00%     79.82% # Class of committed instruction
system.cpu.commit.committedInstType_0::SimdShaSigma2            0      0.00%     79.82% # Class of committed instruction
system.cpu.commit.committedInstType_0::SimdShaSigma3            0      0.00%     79.82% # Class of committed instruction
system.cpu.commit.committedInstType_0::SimdPredAlu            0      0.00%     79.82% # Class of committed instruction
system.cpu.commit.committedInstType_0::MemRead     21806379     11.53%     91.36% # Class of committed instruction
system.cpu.commit.committedInstType_0::MemWrite     14171005      7.50%     98.85% # Class of committed instruction
system.cpu.commit.committedInstType_0::FloatMemRead       718028      0.38%     99.23% # Class of committed instruction
system.cpu.commit.committedInstType_0::FloatMemWrite      1449731      0.77%    100.00% # Class of committed instruction
system.cpu.commit.committedInstType_0::IprAccess            0      0.00%    100.00% # Class of committed instruction
system.cpu.commit.committedInstType_0::InstPrefetch            0      0.00%    100.00% # Class of committed instruction
system.cpu.commit.committedInstType_0::total    189056823                       # Class of committed instruction
system.cpu.commit.committedInstType_1::No_OpClass      1714802      0.91%      0.91% # Class of committed instruction
system.cpu.commit.committedInstType_1::IntAlu    145602533     77.02%     77.92% # Class of committed instruction
system.cpu.commit.committedInstType_1::IntMult       913989      0.48%     78.41% # Class of committed instruction
system.cpu.commit.committedInstType_1::IntDiv       797005      0.42%     78.83% # Class of committed instruction
system.cpu.commit.committedInstType_1::FloatAdd       431712      0.23%     79.06% # Class of committed instruction
system.cpu.commit.committedInstType_1::FloatCmp            0      0.00%     79.06% # Class of committed instruction
system.cpu.commit.committedInstType_1::FloatCvt           32      0.00%     79.06% # Class of committed instruction
system.cpu.commit.committedInstType_1::FloatMult            0      0.00%     79.06% # Class of committed instruction
system.cpu.commit.committedInstType_1::FloatMultAcc            0      0.00%     79.06% # Class of committed instruction
system.cpu.commit.committedInstType_1::FloatDiv            0      0.00%     79.06% # Class of committed instruction
system.cpu.commit.committedInstType_1::FloatMisc            0      0.00%     79.06% # Class of committed instruction
system.cpu.commit.committedInstType_1::FloatSqrt            0      0.00%     79.06% # Class of committed instruction
system.cpu.commit.committedInstType_1::SimdAdd          400      0.00%     79.06% # Class of committed instruction
system.cpu.commit.committedInstType_1::SimdAddAcc            0      0.00%     79.06% # Class of committed instruction
system.cpu.commit.committedInstType_1::SimdAlu        97180      0.05%     79.11% # Class of committed instruction
system.cpu.commit.committedInstType_1::SimdCmp           20      0.00%     79.11% # Class of committed instruction
system.cpu.commit.committedInstType_1::SimdCvt       255878      0.14%     79.24% # Class of committed instruction
system.cpu.commit.committedInstType_1::SimdMisc      1097969      0.58%     79.82% # Class of committed instruction
system.cpu.commit.committedInstType_1::SimdMult            0      0.00%     79.82% # Class of committed instruction
system.cpu.commit.committedInstType_1::SimdMultAcc            0      0.00%     79.82% # Class of committed instruction
system.cpu.commit.committedInstType_1::SimdShift          112      0.00%     79.82% # Class of committed instruction
system.cpu.commit.committedInstType_1::SimdShiftAcc            0      0.00%     79.82% # Class of committed instruction
system.cpu.commit.committedInstType_1::SimdDiv            0      0.00%     79.82% # Class of committed instruction
system.cpu.commit.committedInstType_1::SimdSqrt            0      0.00%     79.82% # Class of committed instruction
system.cpu.commit.committedInstType_1::SimdFloatAdd            0      0.00%     79.82% # Class of committed instruction
system.cpu.commit.committedInstType_1::SimdFloatAlu            0      0.00%     79.82% # Class of committed instruction
system.cpu.commit.committedInstType_1::SimdFloatCmp            0      0.00%     79.82% # Class of committed instruction
system.cpu.commit.committedInstType_1::SimdFloatCvt            4      0.00%     79.82% # Class of committed instruction
system.cpu.commit.committedInstType_1::SimdFloatDiv            0      0.00%     79.82% # Class of committed instruction
system.cpu.commit.committedInstType_1::SimdFloatMisc            0      0.00%     79.82% # Class of committed instruction
system.cpu.commit.committedInstType_1::SimdFloatMult            2      0.00%     79.82% # Class of committed instruction
system.cpu.commit.committedInstType_1::SimdFloatMultAcc            0      0.00%     79.82% # Class of committed instruction
system.cpu.commit.committedInstType_1::SimdFloatSqrt            0      0.00%     79.82% # Class of committed instruction
system.cpu.commit.committedInstType_1::SimdReduceAdd            0      0.00%     79.82% # Class of committed instruction
system.cpu.commit.committedInstType_1::SimdReduceAlu            0      0.00%     79.82% # Class of committed instruction
system.cpu.commit.committedInstType_1::SimdReduceCmp            0      0.00%     79.82% # Class of committed instruction
system.cpu.commit.committedInstType_1::SimdFloatReduceAdd            0      0.00%     79.82% # Class of committed instruction
system.cpu.commit.committedInstType_1::SimdFloatReduceCmp            0      0.00%     79.82% # Class of committed instruction
system.cpu.commit.committedInstType_1::SimdAes            0      0.00%     79.82% # Class of committed instruction
system.cpu.commit.committedInstType_1::SimdAesMix            0      0.00%     79.82% # Class of committed instruction
system.cpu.commit.committedInstType_1::SimdSha1Hash            0      0.00%     79.82% # Class of committed instruction
system.cpu.commit.committedInstType_1::SimdSha1Hash2            0      0.00%     79.82% # Class of committed instruction
system.cpu.commit.committedInstType_1::SimdSha256Hash            0      0.00%     79.82% # Class of committed instruction
system.cpu.commit.committedInstType_1::SimdSha256Hash2            0      0.00%     79.82% # Class of committed instruction
system.cpu.commit.committedInstType_1::SimdShaSigma2            0      0.00%     79.82% # Class of committed instruction
system.cpu.commit.committedInstType_1::SimdShaSigma3            0      0.00%     79.82% # Class of committed instruction
system.cpu.commit.committedInstType_1::SimdPredAlu            0      0.00%     79.82% # Class of committed instruction
system.cpu.commit.committedInstType_1::MemRead     21806378     11.53%     91.36% # Class of committed instruction
system.cpu.commit.committedInstType_1::MemWrite     14171005      7.50%     98.85% # Class of committed instruction
system.cpu.commit.committedInstType_1::FloatMemRead       718028      0.38%     99.23% # Class of committed instruction
system.cpu.commit.committedInstType_1::FloatMemWrite      1449731      0.77%    100.00% # Class of committed instruction
system.cpu.commit.committedInstType_1::IprAccess            0      0.00%    100.00% # Class of committed instruction
system.cpu.commit.committedInstType_1::InstPrefetch            0      0.00%    100.00% # Class of committed instruction
system.cpu.commit.committedInstType_1::total    189056780                       # Class of committed instruction
system.cpu.commit.committedInstType::total    378113603      0.00%      0.00% # Class of committed instruction
system.cpu.commit.commitEligibleSamples      23427767                       # number cycles where commit BW limit reached
system.cpu.dcache.demand_hits::.cpu.data     76990969                       # number of demand (read+write) hits
system.cpu.dcache.demand_hits::total         76990969                       # number of demand (read+write) hits
system.cpu.dcache.overall_hits::.cpu.data     76990969                       # number of overall hits
system.cpu.dcache.overall_hits::total        76990969                       # number of overall hits
system.cpu.dcache.demand_misses::.cpu.data       880605                       # number of demand (read+write) misses
system.cpu.dcache.demand_misses::total         880605                       # number of demand (read+write) misses
system.cpu.dcache.overall_misses::.cpu.data       880605                       # number of overall misses
system.cpu.dcache.overall_misses::total        880605                       # number of overall misses
system.cpu.dcache.demand_miss_latency::.cpu.data  41950970336                       # number of demand (read+write) miss cycles
system.cpu.dcache.demand_miss_latency::total  41950970336                       # number of demand (read+write) miss cycles
system.cpu.dcache.overall_miss_latency::.cpu.data  41950970336                       # number of overall miss cycles
system.cpu.dcache.overall_miss_latency::total  41950970336                       # number of overall miss cycles
system.cpu.dcache.demand_accesses::.cpu.data     77871574                       # number of demand (read+write) accesses
system.cpu.dcache.demand_accesses::total     77871574                       # number of demand (read+write) accesses
system.cpu.dcache.overall_accesses::.cpu.data     77871574                       # number of overall (read+write) accesses
system.cpu.dcache.overall_accesses::total     77871574                       # number of overall (read+write) accesses
system.cpu.dcache.demand_miss_rate::.cpu.data     0.011308                       # miss rate for demand accesses
system.cpu.dcache.demand_miss_rate::total     0.011308                       # miss rate for demand accesses
system.cpu.dcache.overall_miss_rate::.cpu.data     0.011308                       # miss rate for overall accesses
system.cpu.dcache.overall_miss_rate::total     0.011308                       # miss rate for overall accesses
system.cpu.dcache.demand_avg_miss_latency::.cpu.data 47638.805521                       # average overall miss latency
system.cpu.dcache.demand_avg_miss_latency::total 47638.805521                       # average overall miss latency
system.cpu.dcache.overall_avg_miss_latency::.cpu.data 47638.805521                       # average overall miss latency
system.cpu.dcache.overall_avg_miss_latency::total 47638.805521                       # average overall miss latency
system.cpu.dcache.blocked_cycles::no_mshrs            0                       # number of cycles access was blocked
system.cpu.dcache.blocked_cycles::no_targets       192476                       # number of cycles access was blocked
system.cpu.dcache.blocked::no_mshrs                 0                       # number of cycles access was blocked
system.cpu.dcache.blocked::no_targets            6603                       # number of cycles access was blocked
system.cpu.dcache.avg_blocked_cycles::no_mshrs          nan                       # average number of cycles each access was blocked
system.cpu.dcache.avg_blocked_cycles::no_targets    29.149780                       # average number of cycles each access was blocked
system.cpu.dcache.writebacks::.writebacks       722546                       # number of writebacks
system.cpu.dcache.writebacks::total            722546                       # number of writebacks
system.cpu.dcache.demand_mshr_hits::.cpu.data       157885                       # number of demand (read+write) MSHR hits
system.cpu.dcache.demand_mshr_hits::total       157885                       # number of demand (read+write) MSHR hits
system.cpu.dcache.overall_mshr_hits::.cpu.data       157885                       # number of overall MSHR hits
system.cpu.dcache.overall_mshr_hits::total       157885                       # number of overall MSHR hits
system.cpu.dcache.demand_mshr_misses::.cpu.data       722720                       # number of demand (read+write) MSHR misses
system.cpu.dcache.demand_mshr_misses::total       722720                       # number of demand (read+write) MSHR misses
system.cpu.dcache.overall_mshr_misses::.cpu.data       722720                       # number of overall MSHR misses
system.cpu.dcache.overall_mshr_misses::total       722720                       # number of overall MSHR misses
system.cpu.dcache.demand_mshr_miss_latency::.cpu.data  36214195836                       # number of demand (read+write) MSHR miss cycles
system.cpu.dcache.demand_mshr_miss_latency::total  36214195836                       # number of demand (read+write) MSHR miss cycles
system.cpu.dcache.overall_mshr_miss_latency::.cpu.data  36214195836                       # number of overall MSHR miss cycles
system.cpu.dcache.overall_mshr_miss_latency::total  36214195836                       # number of overall MSHR miss cycles
system.cpu.dcache.demand_mshr_miss_rate::.cpu.data     0.009281                       # mshr miss rate for demand accesses
system.cpu.dcache.demand_mshr_miss_rate::total     0.009281                       # mshr miss rate for demand accesses
system.cpu.dcache.overall_mshr_miss_rate::.cpu.data     0.009281                       # mshr miss rate for overall accesses
system.cpu.dcache.overall_mshr_miss_rate::total     0.009281                       # mshr miss rate for overall accesses
system.cpu.dcache.demand_avg_mshr_miss_latency::.cpu.data 50108.196585                       # average overall mshr miss latency
system.cpu.dcache.demand_avg_mshr_miss_latency::total 50108.196585                       # average overall mshr miss latency
system.cpu.dcache.overall_avg_mshr_miss_latency::.cpu.data 50108.196585                       # average overall mshr miss latency
system.cpu.dcache.overall_avg_mshr_miss_latency::total 50108.196585                       # average overall mshr miss latency
system.cpu.dcache.replacements                  58868                       # number of replacements
system.cpu.dcache.expired                      663678                       # dead blocks evicted
system.cpu.dcache.ReadReq_hits::.cpu.data     46252403                       # number of ReadReq hits
system.cpu.dcache.ReadReq_hits::total        46252403                       # number of ReadReq hits
system.cpu.dcache.ReadReq_misses::.cpu.data       357457                       # number of ReadReq misses
system.cpu.dcache.ReadReq_misses::total        357457                       # number of ReadReq misses
system.cpu.dcache.ReadReq_miss_latency::.cpu.data  12602919500                       # number of ReadReq miss cycles
system.cpu.dcache.ReadReq_miss_latency::total  12602919500                       # number of ReadReq miss cycles
system.cpu.dcache.ReadReq_accesses::.cpu.data     46609860                       # number of ReadReq accesses(hits+misses)
system.cpu.dcache.ReadReq_accesses::total     46609860                       # number of ReadReq accesses(hits+misses)
system.cpu.dcache.ReadReq_miss_rate::.cpu.data     0.007669                       # miss rate for ReadReq accesses
system.cpu.dcache.ReadReq_miss_rate::total     0.007669                       # miss rate for ReadReq accesses
system.cpu.dcache.ReadReq_avg_miss_latency::.cpu.data 35257.162400                       # average ReadReq miss latency
system.cpu.dcache.ReadReq_avg_miss_latency::total 35257.162400                       # average ReadReq miss latency
system.cpu.dcache.ReadReq_mshr_hits::.cpu.data       139487                       # number of ReadReq MSHR hits
system.cpu.dcache.ReadReq_mshr_hits::total       139487                       # number of ReadReq MSHR hits
system.cpu.dcache.ReadReq_mshr_misses::.cpu.data       217970                       # number of ReadReq MSHR misses
system.cpu.dcache.ReadReq_mshr_misses::total       217970                       # number of ReadReq MSHR misses
system.cpu.dcache.ReadReq_mshr_miss_latency::.cpu.data   7991027500                       # number of ReadReq MSHR miss cycles
system.cpu.dcache.ReadReq_mshr_miss_latency::total   7991027500                       # number of ReadReq MSHR miss cycles
system.cpu.dcache.ReadReq_mshr_miss_rate::.cpu.data     0.004676                       # mshr miss rate for ReadReq accesses
system.cpu.dcache.ReadReq_mshr_miss_rate::total     0.004676                       # mshr miss rate for ReadReq accesses
system.cpu.dcache.ReadReq_avg_mshr_miss_latency::.cpu.data 36661.134560                       # average ReadReq mshr miss latency
system.cpu.dcache.ReadReq_avg_mshr_miss_latency::total 36661.134560                       # average ReadReq mshr miss latency
system.cpu.dcache.WriteReq_hits::.cpu.data     30738566                       # number of WriteReq hits
system.cpu.dcache.WriteReq_hits::total       30738566                       # number of WriteReq hits
system.cpu.dcache.WriteReq_misses::.cpu.data       523148                       # number of WriteReq misses
system.cpu.dcache.WriteReq_misses::total       523148                       # number of WriteReq misses
system.cpu.dcache.WriteReq_miss_latency::.cpu.data  29348050836                       # number of WriteReq miss cycles
system.cpu.dcache.WriteReq_miss_latency::total  29348050836                       # number of WriteReq miss cycles
system.cpu.dcache.WriteReq_accesses::.cpu.data     31261714                       # number of WriteReq accesses(hits+misses)
system.cpu.dcache.WriteReq_accesses::total     31261714                       # number of WriteReq accesses(hits+misses)
system.cpu.dcache.WriteReq_miss_rate::.cpu.data     0.016734                       # miss rate for WriteReq accesses
system.cpu.dcache.WriteReq_miss_rate::total     0.016734                       # miss rate for WriteReq accesses
system.cpu.dcache.WriteReq_avg_miss_latency::.cpu.data 56098.944918                       # average WriteReq miss latency
system.cpu.dcache.WriteReq_avg_miss_latency::total 56098.944918                       # average WriteReq miss latency
system.cpu.dcache.WriteReq_mshr_hits::.cpu.data        18398                       # number of WriteReq MSHR hits
system.cpu.dcache.WriteReq_mshr_hits::total        18398                       # number of WriteReq MSHR hits
system.cpu.dcache.WriteReq_mshr_misses::.cpu.data       504750                       # number of WriteReq MSHR misses
system.cpu.dcache.WriteReq_mshr_misses::total       504750                       # number of WriteReq MSHR misses
system.cpu.dcache.WriteReq_mshr_miss_latency::.cpu.data  28223168336                       # number of WriteReq MSHR miss cycles
system.cpu.dcache.WriteReq_mshr_miss_latency::total  28223168336                       # number of WriteReq MSHR miss cycles
system.cpu.dcache.WriteReq_mshr_miss_rate::.cpu.data     0.016146                       # mshr miss rate for WriteReq accesses
system.cpu.dcache.WriteReq_mshr_miss_rate::total     0.016146                       # mshr miss rate for WriteReq accesses
system.cpu.dcache.WriteReq_avg_mshr_miss_latency::.cpu.data 55915.142815                       # average WriteReq mshr miss latency
system.cpu.dcache.WriteReq_avg_mshr_miss_latency::total 55915.142815                       # average WriteReq mshr miss latency
system.cpu.dcache.power_state.pwrStateResidencyTicks::UNDEFINED  68505301500                       # Cumulative time (in ticks) in various power states
system.cpu.dcache.tags.tagsinuse           185.599293                       # Cycle average of tags in use
system.cpu.dcache.tags.total_refs            77713689                       # Total number of references to valid blocks.
system.cpu.dcache.tags.sampled_refs            722720                       # Sample count of references to valid blocks.
system.cpu.dcache.tags.avg_refs            107.529457                       # Average number of references to valid blocks.
system.cpu.dcache.tags.warmup_cycle            192500                       # Cycle when the warmup percentage was hit.
system.cpu.dcache.tags.occ_blocks::.cpu.data   185.599293                       # Average occupied blocks per requestor
system.cpu.dcache.tags.occ_percent::.cpu.data     0.362499                       # Average percentage of cache occupancy
system.cpu.dcache.tags.occ_percent::total     0.362499                       # Average percentage of cache occupancy
system.cpu.dcache.tags.occ_task_id_blocks::1024          174                       # Occupied blocks per task id
system.cpu.dcache.tags.age_task_id_blocks_1024::0           30                       # Occupied blocks per task id
system.cpu.dcache.tags.age_task_id_blocks_1024::1           42                       # Occupied blocks per task id
system.cpu.dcache.tags.age_task_id_blocks_1024::2           18                       # Occupied blocks per task id
system.cpu.dcache.tags.age_task_id_blocks_1024::3           15                       # Occupied blocks per task id
system.cpu.dcache.tags.age_task_id_blocks_1024::4           69                       # Occupied blocks per task id
system.cpu.dcache.tags.occ_task_id_percent::1024     0.339844                       # Percentage of cache occupancy per task id
system.cpu.dcache.tags.tag_accesses         623695312                       # Number of tag accesses
system.cpu.dcache.tags.data_accesses        623695312                       # Number of data accesses
system.cpu.dcache.tags.power_state.pwrStateResidencyTicks::UNDEFINED  68505301500                       # Cumulative time (in ticks) in various power states
system.cpu.decode.idleCycles                 41634568                       # Number of cycles decode is idle
system.cpu.decode.blockedCycles              71869227                       # Number of cycles decode is blocked
system.cpu.decode.runCycles                 150501508                       # Number of cycles decode is running
system.cpu.decode.unblockCycles               8150895                       # Number of cycles decode is unblocking
system.cpu.decode.squashCycles                1729150                       # Number of cycles decode is squashing
system.cpu.decode.branchResolved             19224226                       # Number of times decode resolved a  branch
system.cpu.decode.branchMispred                476669                       # Number of times decode detected a branch misprediction
system.cpu.decode.decodedInsts              455233312                       # Number of instructions handled by decode
system.cpu.decode.squashedInsts               9578674                       # Number of squashed instructions handled by decode
system.cpu.dtb.rdAccesses                    51256879                       # TLB accesses on read requests
system.cpu.dtb.wrAccesses                    33584698                       # TLB accesses on write requests
system.cpu.dtb.rdMisses                       1988539                       # TLB misses on read requests
system.cpu.dtb.wrMisses                       1483509                       # TLB misses on write requests
system.cpu.dtb.walker.power_state.pwrStateResidencyTicks::UNDEFINED  68505301500                       # Cumulative time (in ticks) in various power states
system.cpu.dtb_walker_cache.blocked_cycles::no_mshrs            0                       # number of cycles access was blocked
system.cpu.dtb_walker_cache.blocked_cycles::no_targets            0                       # number of cycles access was blocked
system.cpu.dtb_walker_cache.blocked::no_mshrs            0                       # number of cycles access was blocked
system.cpu.dtb_walker_cache.blocked::no_targets            0                       # number of cycles access was blocked
system.cpu.dtb_walker_cache.avg_blocked_cycles::no_mshrs          nan                       # average number of cycles each access was blocked
system.cpu.dtb_walker_cache.avg_blocked_cycles::no_targets          nan                       # average number of cycles each access was blocked
system.cpu.dtb_walker_cache.replacements            0                       # number of replacements
system.cpu.dtb_walker_cache.expired                 0                       # dead blocks evicted
system.cpu.dtb_walker_cache.power_state.pwrStateResidencyTicks::UNDEFINED  68505301500                       # Cumulative time (in ticks) in various power states
system.cpu.dtb_walker_cache.tags.tagsinuse            0                       # Cycle average of tags in use
system.cpu.dtb_walker_cache.tags.total_refs            0                       # Total number of references to valid blocks.
system.cpu.dtb_walker_cache.tags.sampled_refs            0                       # Sample count of references to valid blocks.
system.cpu.dtb_walker_cache.tags.avg_refs          nan                       # Average number of references to valid blocks.
system.cpu.dtb_walker_cache.tags.warmup_cycle            0                       # Cycle when the warmup percentage was hit.
system.cpu.dtb_walker_cache.tags.tag_accesses            0                       # Number of tag accesses
system.cpu.dtb_walker_cache.tags.data_accesses            0                       # Number of data accesses
system.cpu.dtb_walker_cache.tags.power_state.pwrStateResidencyTicks::UNDEFINED  68505301500                       # Cumulative time (in ticks) in various power states
system.cpu.fetch.icacheStallCycles            2165024                       # Number of cycles fetch is stalled on an Icache miss
system.cpu.fetch.insts                      258546412                       # Number of instructions fetch has processed
system.cpu.fetch.branches                    55517079                       # Number of branches that fetch encountered
system.cpu.fetch.predictedBranches           23049634                       # Number of branches that fetch has predicted taken
system.cpu.fetch.cycles                     130946290                       # Number of cycles fetch has run and was not squashing or blocked
system.cpu.fetch.squashCycles                 2204147                       # Number of cycles fetch has spent squashing
system.cpu.fetch.tlbCycles                       1178                       # Number of cycles fetch has spent waiting for tlb
system.cpu.fetch.miscStallCycles                   28                       # Number of cycles fetch has spent waiting on interrupts,or bad addresses, or out of MSHRs
system.cpu.fetch.cacheLines                  88795367                       # Number of cache lines fetched
system.cpu.fetch.icacheSquashes                 46411                       # Number of outstanding Icache misses that were squashed
system.cpu.fetch.tlbSquashes                      521                       # Number of outstanding ITLB misses that were squashed
system.cpu.fetch.SMTDist::samples           136942674                       # Number of Cycles each Thread Fetched
system.cpu.fetch.SMTDist::mean               0.458048                       # Number of Cycles each Thread Fetched
system.cpu.fetch.SMTDist::stdev              0.551523                       # Number of Cycles each Thread Fetched
system.cpu.fetch.SMTDist::underflows                0      0.00%      0.00% # Number of Cycles each Thread Fetched
system.cpu.fetch.SMTDist::-1                  3830154      2.80%      2.80% # Number of Cycles each Thread Fetched
system.cpu.fetch.SMTDist::0                  66556111     48.60%     51.40% # Number of Cycles each Thread Fetched
system.cpu.fetch.SMTDist::1                  66556409     48.60%    100.00% # Number of Cycles each Thread Fetched
system.cpu.fetch.SMTDist::2                         0      0.00%    100.00% # Number of Cycles each Thread Fetched
system.cpu.fetch.SMTDist::overflows                 0      0.00%    100.00% # Number of Cycles each Thread Fetched
system.cpu.fetch.SMTDist::min_value                -1                       # Number of Cycles each Thread Fetched
system.cpu.fetch.SMTDist::max_value                 1                       # Number of Cycles each Thread Fetched
system.cpu.fetch.SMTDist::total             136942674                       # Number of Cycles each Thread Fetched
system.cpu.fetch.nisnDist::samples          136942674                       # Number of instructions fetched each cycle (Total)
system.cpu.fetch.nisnDist::mean              3.558007                       # Number of instructions fetched each cycle (Total)
system.cpu.fetch.nisnDist::stdev             2.879439                       # Number of instructions fetched each cycle (Total)
system.cpu.fetch.nisnDist::underflows               0      0.00%      0.00% # Number of instructions fetched each cycle (Total)
system.cpu.fetch.nisnDist::0                 37490869     27.38%     27.38% # Number of instructions fetched each cycle (Total)
system.cpu.fetch.nisnDist::1                  7789886      5.69%     33.07% # Number of instructions fetched each cycle (Total)
system.cpu.fetch.nisnDist::2                  8269782      6.04%     39.10% # Number of instructions fetched each cycle (Total)
system.cpu.fetch.nisnDist::3                 14488598     10.58%     49.68% # Number of instructions fetched each cycle (Total)
system.cpu.fetch.nisnDist::4                 11668867      8.52%     58.21% # Number of instructions fetched each cycle (Total)
system.cpu.fetch.nisnDist::5                 16121095     11.77%     69.98% # Number of instructions fetched each cycle (Total)
system.cpu.fetch.nisnDist::6                 13945821     10.18%     80.16% # Number of instructions fetched each cycle (Total)
system.cpu.fetch.nisnDist::7                  8850225      6.46%     86.62% # Number of instructions fetched each cycle (Total)
system.cpu.fetch.nisnDist::8                 18317531     13.38%    100.00% # Number of instructions fetched each cycle (Total)
system.cpu.fetch.nisnDist::overflows                0      0.00%    100.00% # Number of instructions fetched each cycle (Total)
system.cpu.fetch.nisnDist::min_value                0                       # Number of instructions fetched each cycle (Total)
system.cpu.fetch.nisnDist::max_value                8                       # Number of instructions fetched each cycle (Total)
system.cpu.fetch.nisnDist::total            136942674                       # Number of instructions fetched each cycle (Total)
system.cpu.fetch.branchRate                  0.405203                       # Number of branch fetches per cycle
system.cpu.fetch.rate                        1.887054                       # Number of inst fetches per cycle
system.cpu.icache.demand_hits::.cpu.inst     88542622                       # number of demand (read+write) hits
system.cpu.icache.demand_hits::total         88542622                       # number of demand (read+write) hits
system.cpu.icache.overall_hits::.cpu.inst     88542622                       # number of overall hits
system.cpu.icache.overall_hits::total        88542622                       # number of overall hits
system.cpu.icache.demand_misses::.cpu.inst       252743                       # number of demand (read+write) misses
system.cpu.icache.demand_misses::total         252743                       # number of demand (read+write) misses
system.cpu.icache.overall_misses::.cpu.inst       252743                       # number of overall misses
system.cpu.icache.overall_misses::total        252743                       # number of overall misses
system.cpu.icache.demand_miss_latency::.cpu.inst   2252924500                       # number of demand (read+write) miss cycles
system.cpu.icache.demand_miss_latency::total   2252924500                       # number of demand (read+write) miss cycles
[...]
system.mem_ctrls1.dram.perBankWrBursts::4         5381                       # Per bank write bursts
system.mem_ctrls1.dram.perBankWrBursts::5         5383                       # Per bank write bursts
system.mem_ctrls1.dram.perBankWrBursts::6         5401                       # Per bank write bursts
system.mem_ctrls1.dram.perBankWrBursts::7         5448                       # Per bank write bursts
system.mem_ctrls1.dram.perBankWrBursts::8         5438                       # Per bank write bursts
system.mem_ctrls1.dram.perBankWrBursts::9         5249                       # Per bank write bursts
system.mem_ctrls1.dram.perBankWrBursts::10         5329                       # Per bank write bursts
system.mem_ctrls1.dram.perBankWrBursts::11         5264                       # Per bank write bursts
system.mem_ctrls1.dram.perBankWrBursts::12         5266                       # Per bank write bursts
system.mem_ctrls1.dram.perBankWrBursts::13         5414                       # Per bank write bursts
system.mem_ctrls1.dram.perBankWrBursts::14         5236                       # Per bank write bursts
system.mem_ctrls1.dram.perBankWrBursts::15         5299                       # Per bank write bursts
system.mem_ctrls1.dram.perBankWrBursts::16         5260                       # Per bank write bursts
system.mem_ctrls1.dram.perBankWrBursts::17         5361                       # Per bank write bursts
system.mem_ctrls1.dram.perBankWrBursts::18         5345                       # Per bank write bursts
system.mem_ctrls1.dram.perBankWrBursts::19         5304                       # Per bank write bursts
system.mem_ctrls1.dram.perBankWrBursts::20         5181                       # Per bank write bursts
system.mem_ctrls1.dram.perBankWrBursts::21         5312                       # Per bank write bursts
system.mem_ctrls1.dram.perBankWrBursts::22         5403                       # Per bank write bursts
system.mem_ctrls1.dram.perBankWrBursts::23         5358                       # Per bank write bursts
system.mem_ctrls1.dram.perBankWrBursts::24         5411                       # Per bank write bursts
system.mem_ctrls1.dram.perBankWrBursts::25         5221                       # Per bank write bursts
system.mem_ctrls1.dram.perBankWrBursts::26         5332                       # Per bank write bursts
system.mem_ctrls1.dram.perBankWrBursts::27         5387                       # Per bank write bursts
system.mem_ctrls1.dram.perBankWrBursts::28         5402                       # Per bank write bursts
system.mem_ctrls1.dram.perBankWrBursts::29         5433                       # Per bank write bursts
system.mem_ctrls1.dram.perBankWrBursts::30         5362                       # Per bank write bursts
system.mem_ctrls1.dram.perBankWrBursts::31         5335                       # Per bank write bursts
system.mem_ctrls1.dram.totQLat             3941034408                       # Total ticks spent queuing
system.mem_ctrls1.dram.totBusLat            692662824                       # Total ticks spent in databus transfers
system.mem_ctrls1.dram.totMemAccLat        7577306352                       # Total ticks spent from burst creation until serviced by the DRAM
system.mem_ctrls1.dram.avgQLat               18958.04                       # Average queueing delay per DRAM burst
system.mem_ctrls1.dram.avgBusLat              3332.00                       # Average bus latency per DRAM burst
system.mem_ctrls1.dram.avgMemAccLat          36450.04                       # Average memory access latency per DRAM burst
system.mem_ctrls1.dram.readRowHits             126424                       # Number of row buffer hits during reads
system.mem_ctrls1.dram.writeRowHits             45371                       # Number of row buffer hits during writes
system.mem_ctrls1.dram.readRowHitRate           60.82                       # Row buffer hit rate for reads
system.mem_ctrls1.dram.writeRowHitRate          26.52                       # Row buffer hit rate for writes
system.mem_ctrls1.dram.bytesPerActivate::samples       207183                       # Bytes accessed per row activation
system.mem_ctrls1.dram.bytesPerActivate::mean   117.067829                       # Bytes accessed per row activation
system.mem_ctrls1.dram.bytesPerActivate::gmean    99.179269                       # Bytes accessed per row activation
system.mem_ctrls1.dram.bytesPerActivate::stdev    90.685863                       # Bytes accessed per row activation
system.mem_ctrls1.dram.bytesPerActivate::0-127       104703     50.54%     50.54% # Bytes accessed per row activation
system.mem_ctrls1.dram.bytesPerActivate::128-255        84834     40.95%     91.48% # Bytes accessed per row activation
system.mem_ctrls1.dram.bytesPerActivate::256-383        10911      5.27%     96.75% # Bytes accessed per row activation
system.mem_ctrls1.dram.bytesPerActivate::384-511         3449      1.66%     98.41% # Bytes accessed per row activation
system.mem_ctrls1.dram.bytesPerActivate::512-639         2003      0.97%     99.38% # Bytes accessed per row activation
system.mem_ctrls1.dram.bytesPerActivate::640-767          809      0.39%     99.77% # Bytes accessed per row activation
system.mem_ctrls1.dram.bytesPerActivate::768-895          174      0.08%     99.86% # Bytes accessed per row activation
system.mem_ctrls1.dram.bytesPerActivate::896-1023           54      0.03%     99.88% # Bytes accessed per row activation
system.mem_ctrls1.dram.bytesPerActivate::1024-1151          246      0.12%    100.00% # Bytes accessed per row activation
system.mem_ctrls1.dram.bytesPerActivate::total       207183                       # Bytes accessed per row activation
system.mem_ctrls1.dram.bytesRead             13304448                       # Total number of bytes read from DRAM
system.mem_ctrls1.dram.bytesWritten          10950272                       # Total number of bytes written to DRAM
system.mem_ctrls1.dram.avgRdBW             194.210487                       # Average DRAM read bandwidth in MiBytes/s
system.mem_ctrls1.dram.avgWrBW             159.845614                       # Average DRAM write bandwidth in MiBytes/s
system.mem_ctrls1.dram.peakBW                19207.00                       # Theoretical peak bandwidth in MiByte/s
system.mem_ctrls1.dram.busUtil                   1.84                       # Data bus utilization in percentage
system.mem_ctrls1.dram.busUtilRead               1.01                       # Data bus utilization in percentage for reads
system.mem_ctrls1.dram.busUtilWrite              0.83                       # Data bus utilization in percentage for writes
system.mem_ctrls1.dram.pageHitRate              45.33                       # Row buffer hit rate, read and write combined
system.mem_ctrls1.dram.power_state.pwrStateResidencyTicks::UNDEFINED  68505301500                       # Cumulative time (in ticks) in various power states
system.mem_ctrls1.dram.rank0.actEnergy   323090232.191991                       # Energy for activate commands per rank (pJ)
system.mem_ctrls1.dram.rank0.preEnergy   429536028.835190                       # Energy for precharge commands per rank (pJ)
system.mem_ctrls1.dram.rank0.readEnergy  438167814.739166                       # Energy for read commands per rank (pJ)
system.mem_ctrls1.dram.rank0.writeEnergy 322069280.735998                       # Energy for write commands per rank (pJ)
system.mem_ctrls1.dram.rank0.refreshEnergy 12188552364.103960                       # Energy for refresh commands per rank (pJ)
system.mem_ctrls1.dram.rank0.actBackEnergy 48084696952.588280                       # Energy for active background per rank (pJ)
system.mem_ctrls1.dram.rank0.preBackEnergy 7773827272.780793                       # Energy for precharge background per rank (pJ)
system.mem_ctrls1.dram.rank0.actPowerDownEnergy            0                       # Energy for active power-down per rank (pJ)
system.mem_ctrls1.dram.rank0.prePowerDownEnergy            0                       # Energy for precharge power-down per rank (pJ)
system.mem_ctrls1.dram.rank0.selfRefreshEnergy            0                       # Energy for self refresh per rank (pJ)
system.mem_ctrls1.dram.rank0.totalEnergy 69559939945.977768                       # Total energy per rank (pJ)
system.mem_ctrls1.dram.rank0.averagePower  1015.394990                       # Core power per rank (mW)
system.mem_ctrls1.dram.rank0.totalIdleTime            0                       # Total Idle time Per DRAM Rank
system.mem_ctrls1.dram.rank0.pwrStateTime::IDLE  11662360800                       # Time in different power states
system.mem_ctrls1.dram.rank0.pwrStateTime::REF   3079300000                       # Time in different power states
system.mem_ctrls1.dram.rank0.pwrStateTime::SREF            0                       # Time in different power states
system.mem_ctrls1.dram.rank0.pwrStateTime::PRE_PDN            0                       # Time in different power states
system.mem_ctrls1.dram.rank0.pwrStateTime::ACT  53763640700                       # Time in different power states
system.mem_ctrls1.dram.rank0.pwrStateTime::ACT_PDN            0                       # Time in different power states
system.mem_ctrls1.dram.rank1.actEnergy   323068400.927990                       # Energy for activate commands per rank (pJ)
system.mem_ctrls1.dram.rank1.preEnergy   429515297.131188                       # Energy for precharge commands per rank (pJ)
system.mem_ctrls1.dram.rank1.readEnergy  436249734.278364                       # Energy for read commands per rank (pJ)
system.mem_ctrls1.dram.rank1.writeEnergy 321001867.871998                       # Energy for write commands per rank (pJ)
system.mem_ctrls1.dram.rank1.refreshEnergy 12188552364.103960                       # Energy for refresh commands per rank (pJ)
system.mem_ctrls1.dram.rank1.actBackEnergy 48284921358.777122                       # Energy for active background per rank (pJ)
system.mem_ctrls1.dram.rank1.preBackEnergy 7619982531.302372                       # Energy for precharge background per rank (pJ)
system.mem_ctrls1.dram.rank1.actPowerDownEnergy            0                       # Energy for active power-down per rank (pJ)
system.mem_ctrls1.dram.rank1.prePowerDownEnergy            0                       # Energy for precharge power-down per rank (pJ)
system.mem_ctrls1.dram.rank1.selfRefreshEnergy            0                       # Energy for self refresh per rank (pJ)
system.mem_ctrls1.dram.rank1.totalEnergy 69603291554.395477                       # Total energy per rank (pJ)
system.mem_ctrls1.dram.rank1.averagePower  1016.027811                       # Core power per rank (mW)
system.mem_ctrls1.dram.rank1.totalIdleTime            0                       # Total Idle time Per DRAM Rank
system.mem_ctrls1.dram.rank1.pwrStateTime::IDLE  11426653013                       # Time in different power states
system.mem_ctrls1.dram.rank1.pwrStateTime::REF   3079300000                       # Time in different power states
system.mem_ctrls1.dram.rank1.pwrStateTime::SREF            0                       # Time in different power states
system.mem_ctrls1.dram.rank1.pwrStateTime::PRE_PDN            0                       # Time in different power states
system.mem_ctrls1.dram.rank1.pwrStateTime::ACT  53999348487                       # Time in different power states
system.mem_ctrls1.dram.rank1.pwrStateTime::ACT_PDN            0                       # Time in different power states
system.mem_ctrls1.power_state.pwrStateResidencyTicks::UNDEFINED  68505301500                       # Cumulative time (in ticks) in various power states
system.membus.trans_dist::ReadResp              88818                       # Transaction distribution
system.membus.trans_dist::WritebackDirty       342270                       # Transaction distribution
system.membus.trans_dist::CleanEvict             7579                       # Transaction distribution
system.membus.trans_dist::ReadExReq            327084                       # Transaction distribution
system.membus.trans_dist::ReadExResp           327084                       # Transaction distribution
system.membus.trans_dist::ReadSharedReq         88818                       # Transaction distribution
system.membus.pkt_count_system.l2.mem_side_port::system.mem_ctrls0.port       590766                       # Packet count per connected requestor and responder (bytes)
system.membus.pkt_count_system.l2.mem_side_port::system.mem_ctrls1.port       590887                       # Packet count per connected requestor and responder (bytes)
system.membus.pkt_count_system.l2.mem_side_port::total      1181653                       # Packet count per connected requestor and responder (bytes)
system.membus.pkt_count::total                1181653                       # Packet count per connected requestor and responder (bytes)
system.membus.pkt_size_system.l2.mem_side_port::system.mem_ctrls0.port     24259008                       # Cumulative packet size per connected requestor and responder (bytes)
system.membus.pkt_size_system.l2.mem_side_port::system.mem_ctrls1.port     24264000                       # Cumulative packet size per connected requestor and responder (bytes)
system.membus.pkt_size_system.l2.mem_side_port::total     48523008                       # Cumulative packet size per connected requestor and responder (bytes)
system.membus.pkt_size::total                48523008                       # Cumulative packet size per connected requestor and responder (bytes)
system.membus.snoops                                0                       # Total snoops (count)
system.membus.snoopTraffic                          0                       # Total snoop traffic (bytes)
system.membus.snoop_fanout::samples            415902                       # Request fanout histogram
system.membus.snoop_fanout::mean                    0                       # Request fanout histogram
system.membus.snoop_fanout::stdev                   0                       # Request fanout histogram
system.membus.snoop_fanout::underflows              0      0.00%      0.00% # Request fanout histogram
system.membus.snoop_fanout::0                  415902    100.00%    100.00% # Request fanout histogram
system.membus.snoop_fanout::1                       0      0.00%    100.00% # Request fanout histogram
system.membus.snoop_fanout::overflows               0      0.00%    100.00% # Request fanout histogram
system.membus.snoop_fanout::min_value               0                       # Request fanout histogram
system.membus.snoop_fanout::max_value               0                       # Request fanout histogram
system.membus.snoop_fanout::total              415902                       # Request fanout histogram
system.membus.power_state.pwrStateResidencyTicks::UNDEFINED  68505301500                       # Cumulative time (in ticks) in various power states
system.membus.reqLayer4.occupancy          1116500636                       # Layer occupancy (ticks)
system.membus.reqLayer4.utilization               1.6                       # Layer utilization (%)
system.membus.reqLayer5.occupancy          1116557165                       # Layer occupancy (ticks)
system.membus.reqLayer5.utilization               1.6                       # Layer utilization (%)
system.membus.respLayer1.occupancy         2198971224                       # Layer occupancy (ticks)
system.membus.respLayer1.utilization              3.2                       # Layer utilization (%)
system.tol2bus.trans_dist::ReadResp            469448                       # Transaction distribution
system.tol2bus.trans_dist::WritebackDirty       994612                       # Transaction distribution
system.tol2bus.trans_dist::WritebackClean       321482                       # Transaction distribution
system.tol2bus.trans_dist::CleanEvict            8658                       # Transaction distribution
system.tol2bus.trans_dist::HardPFReq               44                       # Transaction distribution
system.tol2bus.trans_dist::ReadExReq           505062                       # Transaction distribution
system.tol2bus.trans_dist::ReadExResp          505062                       # Transaction distribution
system.tol2bus.trans_dist::ReadCleanReq        251790                       # Transaction distribution
system.tol2bus.trans_dist::ReadSharedReq       217658                       # Transaction distribution
system.tol2bus.pkt_count_system.cpu.icache.mem_side_port::system.l2.cpu_side_port       754858                       # Packet count per connected requestor and responder (bytes)
system.tol2bus.pkt_count_system.cpu.dcache.mem_side_port::system.l2.cpu_side_port      2167986                       # Packet count per connected requestor and responder (bytes)
system.tol2bus.pkt_count::total               2922844                       # Packet count per connected requestor and responder (bytes)
system.tol2bus.pkt_size_system.cpu.icache.mem_side_port::system.l2.cpu_side_port     32196352                       # Cumulative packet size per connected requestor and responder (bytes)
system.tol2bus.pkt_size_system.cpu.dcache.mem_side_port::system.l2.cpu_side_port     92497024                       # Cumulative packet size per connected requestor and responder (bytes)
system.tol2bus.pkt_size::total              124693376                       # Cumulative packet size per connected requestor and responder (bytes)
system.tol2bus.snoops                          350972                       # Total snoops (count)
system.tol2bus.snoopTraffic                  21905280                       # Total snoop traffic (bytes)
system.tol2bus.snoop_fanout::samples          1325482                       # Request fanout histogram
system.tol2bus.snoop_fanout::mean            0.000826                       # Request fanout histogram
system.tol2bus.snoop_fanout::stdev           0.028730                       # Request fanout histogram
system.tol2bus.snoop_fanout::underflows             0      0.00%      0.00% # Request fanout histogram
system.tol2bus.snoop_fanout::0                1324387     99.92%     99.92% # Request fanout histogram
system.tol2bus.snoop_fanout::1                   1095      0.08%    100.00% # Request fanout histogram
system.tol2bus.snoop_fanout::2                      0      0.00%    100.00% # Request fanout histogram
system.tol2bus.snoop_fanout::3                      0      0.00%    100.00% # Request fanout histogram
system.tol2bus.snoop_fanout::4                      0      0.00%    100.00% # Request fanout histogram
system.tol2bus.snoop_fanout::overflows              0      0.00%    100.00% # Request fanout histogram
system.tol2bus.snoop_fanout::min_value              0                       # Request fanout histogram
system.tol2bus.snoop_fanout::max_value              1                       # Request fanout histogram
system.tol2bus.snoop_fanout::total            1325482                       # Request fanout histogram
system.tol2bus.power_state.pwrStateResidencyTicks::UNDEFINED  68505301500                       # Cumulative time (in ticks) in various power states
system.tol2bus.reqLayer0.occupancy         1947991000                       # Layer occupancy (ticks)
system.tol2bus.reqLayer0.utilization              2.8                       # Layer utilization (%)
system.tol2bus.respLayer0.occupancy         377708453                       # Layer occupancy (ticks)
system.tol2bus.respLayer0.utilization             0.6                       # Layer utilization (%)
system.tol2bus.respLayer1.occupancy        1084139880                       # Layer occupancy (ticks)
system.tol2bus.respLayer1.utilization             1.6                       # Layer utilization (%)
system.voltage_domain.voltage                       1                       # Voltage in Volts

---------- End Simulation Statistics   ----------
