
---------- Begin Simulation Statistics ----------
final_tick                                 3987848500                       # Number of ticks from beginning of simulation (restored from checkpoints and never reset)
host_mem_usage                               67686956                       # Number of bytes of host memory used
host_seconds                                    40.24                       # Real time elapsed on the host
host_tick_rate                               99098100                       # Simulator tick rate (ticks/s)
sim_freq                                 1000000000000                       # Frequency of simulated ticks
sim_seconds                                  0.003988                       # Number of seconds simulated
sim_ticks                                  3987848500                       # Number of ticks simulated
system.cpu.cc_regfile_reads                   8085686                       # number of cc regfile reads
system.cpu.cc_regfile_writes                  5933988                       # number of cc regfile writes
system.cpu.committedInsts::0                  3810237                       # Number of Instructions Simulated
system.cpu.committedInsts::1                  3810237                       # Number of Instructions Simulated
system.cpu.committedInsts::total              7620474                       # Number of Instructions Simulated
system.cpu.committedOps::0                    6845422                       # Number of Ops (including micro ops) Simulated
system.cpu.committedOps::1                    6845422                       # Number of Ops (including micro ops) Simulated
system.cpu.committedOps::total               13690844                       # Number of Ops (including micro ops) Simulated
system.cpu.cpi::0                            2.093229                       # CPI: Cycles Per Instruction
system.cpu.cpi::1                            2.093229                       # CPI: Cycles Per Instruction
system.cpu.cpi_total                         1.046614                       # CPI: Total CPI of All Threads
system.cpu.fp_regfile_reads                    456812                       # number of floating regfile reads
system.cpu.fp_regfile_writes                   246811                       # number of floating regfile writes
system.cpu.idleCycles                          191484                       # Total number of cycles that the CPU has spent unscheduled due to idling
system.cpu.iew.branchMispredicts                73236                       # Number of branch mispredicts detected at execute
system.cpu.iew.exec_branches::0                731546                       # Number of branches executed
system.cpu.iew.exec_branches::1                731750                       # Number of branches executed
system.cpu.iew.exec_branches::total           1463296                       # Number of branches executed
system.cpu.iew.exec_nop::0                          0                       # number of nop insts executed
system.cpu.iew.exec_nop::1                          0                       # number of nop insts executed
system.cpu.iew.exec_nop::total                      0                       # number of nop insts executed
system.cpu.iew.exec_rate                     1.948318                       # Inst execution rate
system.cpu.iew.exec_refs::0                   1570993                       # number of memory reference insts executed
system.cpu.iew.exec_refs::1                   1572366                       # number of memory reference insts executed
system.cpu.iew.exec_refs::total               3143359                       # number of memory reference insts executed
system.cpu.iew.exec_stores::0                  468849                       # Number of stores executed
system.cpu.iew.exec_stores::1                  469171                       # Number of stores executed
system.cpu.iew.exec_stores::total              938020                       # Number of stores executed
system.cpu.iew.exec_swp::0                          0                       # number of swp insts executed
system.cpu.iew.exec_swp::1                          0                       # number of swp insts executed
system.cpu.iew.exec_swp::total                      0                       # number of swp insts executed
system.cpu.iew.iewBlockCycles                 2055436                       # Number of cycles IEW is blocking
system.cpu.iew.iewDispLoadInsts               2216831                       # Number of dispatched load instructions
system.cpu.iew.iewDispNonSpecInsts               1995                       # Number of dispatched non-speculative instructions
system.cpu.iew.iewDispSquashedInsts                 0                       # Number of squashed instructions skipped by dispatch
system.cpu.iew.iewDispStoreInsts              1044956                       # Number of dispatched store instructions
system.cpu.iew.iewDispatchedInsts            16642434                       # Number of instructions dispatched to IQ
system.cpu.iew.iewExecLoadInsts::0            1102144                       # Number of load instructions executed
system.cpu.iew.iewExecLoadInsts::1            1103195                       # Number of load instructions executed
system.cpu.iew.iewExecLoadInsts::total        2205339                       # Number of load instructions executed
system.cpu.iew.iewExecSquashedInsts             98145                       # Number of squashed instructions skipped in execute
system.cpu.iew.iewExecutedInsts              15539193                       # Number of executed instructions
system.cpu.iew.iewIQFullEvents                  11861                       # Number of times the IQ has become full, causing a stall
system.cpu.iew.iewIdleCycles                        0                       # Number of cycles IEW is idle
system.cpu.iew.iewLSQFullEvents                 10130                       # Number of times the LSQ has become full, causing a stall
system.cpu.iew.iewSquashCycles                  68357                       # Number of cycles IEW is squashing
system.cpu.iew.iewUnblockCycles                 30035                       # Number of cycles IEW is unblocking
system.cpu.iew.memOrderViolationEvents            590                       # Number of memory order violations
system.cpu.iew.predictedNotTakenIncorrect        52005                       # Number of branches that were predicted not taken incorrectly
system.cpu.iew.predictedTakenIncorrect          21231                       # Number of branches that were predicted taken incorrectly
system.cpu.iew.wb_consumers::0                9959076                       # num instructions consuming a value
system.cpu.iew.wb_consumers::1                9951151                       # num instructions consuming a value
system.cpu.iew.wb_consumers::total           19910227                       # num instructions consuming a value
system.cpu.iew.wb_count::0                    7680223                       # cumulative count of insts written-back
system.cpu.iew.wb_count::1                    7681317                       # cumulative count of insts written-back
system.cpu.iew.wb_count::total               15361540                       # cumulative count of insts written-back
system.cpu.iew.wb_fanout::0                  0.579989                       # average fanout of values written-back
system.cpu.iew.wb_fanout::1                  0.580208                       # average fanout of values written-back
system.cpu.iew.wb_fanout::total              0.580098                       # average fanout of values written-back
system.cpu.iew.wb_producers::0                5776153                       # num instructions producing a value
system.cpu.iew.wb_producers::1                5773733                       # num instructions producing a value
system.cpu.iew.wb_producers::total           11549886                       # num instructions producing a value
system.cpu.iew.wb_rate::0                    0.962953                       # insts written-back per cycle
system.cpu.iew.wb_rate::1                    0.963090                       # insts written-back per cycle
system.cpu.iew.wb_rate::total                1.926043                       # insts written-back per cycle
system.cpu.iew.wb_sent::0                     7682934                       # cumulative count of insts sent to commit
system.cpu.iew.wb_sent::1                     7683985                       # cumulative count of insts sent to commit
system.cpu.iew.wb_sent::total                15366919                       # cumulative count of insts sent to commit
system.cpu.int_regfile_reads                 24195255                       # number of integer regfile reads
system.cpu.int_regfile_writes                12742531                       # number of integer regfile writes
system.cpu.ipc::0                            0.477731                       # IPC: Instructions Per Cycle
system.cpu.ipc::1                            0.477731                       # IPC: Instructions Per Cycle
system.cpu.ipc_total                         0.955462                       # IPC: Total IPC of All Threads
system.cpu.iq.FU_type_0::No_OpClass             91583      1.16%      1.16% # Type of FU issued
system.cpu.iq.FU_type_0::IntAlu               5991719     75.76%     76.92% # Type of FU issued
system.cpu.iq.FU_type_0::IntMult                  527      0.01%     76.92% # Type of FU issued
system.cpu.iq.FU_type_0::IntDiv                 46531      0.59%     77.51% # Type of FU issued
system.cpu.iq.FU_type_0::FloatAdd               11904      0.15%     77.66% # Type of FU issued
system.cpu.iq.FU_type_0::FloatCmp                   0      0.00%     77.66% # Type of FU issued
system.cpu.iq.FU_type_0::FloatCvt                1574      0.02%     77.68% # Type of FU issued
system.cpu.iq.FU_type_0::FloatMult                  0      0.00%     77.68% # Type of FU issued
system.cpu.iq.FU_type_0::FloatMultAcc               0      0.00%     77.68% # Type of FU issued
system.cpu.iq.FU_type_0::FloatDiv                   0      0.00%     77.68% # Type of FU issued
system.cpu.iq.FU_type_0::FloatMisc                  0      0.00%     77.68% # Type of FU issued
system.cpu.iq.FU_type_0::FloatSqrt                  0      0.00%     77.68% # Type of FU issued
system.cpu.iq.FU_type_0::SimdAdd                 8749      0.11%     77.79% # Type of FU issued
system.cpu.iq.FU_type_0::SimdAddAcc                 0      0.00%     77.79% # Type of FU issued
system.cpu.iq.FU_type_0::SimdAlu                31538      0.40%     78.19% # Type of FU issued
system.cpu.iq.FU_type_0::SimdCmp                  192      0.00%     78.20% # Type of FU issued
system.cpu.iq.FU_type_0::SimdCvt                21782      0.28%     78.47% # Type of FU issued
system.cpu.iq.FU_type_0::SimdMisc               22149      0.28%     78.75% # Type of FU issued
system.cpu.iq.FU_type_0::SimdMult                   0      0.00%     78.75% # Type of FU issued
system.cpu.iq.FU_type_0::SimdMultAcc                0      0.00%     78.75% # Type of FU issued
system.cpu.iq.FU_type_0::SimdShift               1493      0.02%     78.77% # Type of FU issued
system.cpu.iq.FU_type_0::SimdShiftAcc               0      0.00%     78.77% # Type of FU issued
system.cpu.iq.FU_type_0::SimdDiv                    0      0.00%     78.77% # Type of FU issued
system.cpu.iq.FU_type_0::SimdSqrt                   0      0.00%     78.77% # Type of FU issued
system.cpu.iq.FU_type_0::SimdFloatAdd               5      0.00%     78.77% # Type of FU issued
system.cpu.iq.FU_type_0::SimdFloatAlu               0      0.00%     78.77% # Type of FU issued
system.cpu.iq.FU_type_0::SimdFloatCmp               0      0.00%     78.77% # Type of FU issued
system.cpu.iq.FU_type_0::SimdFloatCvt             190      0.00%     78.77% # Type of FU issued
system.cpu.iq.FU_type_0::SimdFloatDiv               1      0.00%     78.77% # Type of FU issued
system.cpu.iq.FU_type_0::SimdFloatMisc              0      0.00%     78.77% # Type of FU issued
system.cpu.iq.FU_type_0::SimdFloatMult             63      0.00%     78.77% # Type of FU issued
system.cpu.iq.FU_type_0::SimdFloatMultAcc            0      0.00%     78.77% # Type of FU issued
system.cpu.iq.FU_type_0::SimdFloatSqrt              1      0.00%     78.77% # Type of FU issued
system.cpu.iq.FU_type_0::SimdReduceAdd              0      0.00%     78.77% # Type of FU issued
system.cpu.iq.FU_type_0::SimdReduceAlu              0      0.00%     78.77% # Type of FU issued
system.cpu.iq.FU_type_0::SimdReduceCmp              0      0.00%     78.77% # Type of FU issued
system.cpu.iq.FU_type_0::SimdFloatReduceAdd            0      0.00%     78.77% # Type of FU issued
system.cpu.iq.FU_type_0::SimdFloatReduceCmp            0      0.00%     78.77% # Type of FU issued
system.cpu.iq.FU_type_0::SimdAes                    0      0.00%     78.77% # Type of FU issued
system.cpu.iq.FU_type_0::SimdAesMix                 0      0.00%     78.77% # Type of FU issued
system.cpu.iq.FU_type_0::SimdSha1Hash               0      0.00%     78.77% # Type of FU issued
system.cpu.iq.FU_type_0::SimdSha1Hash2              0      0.00%     78.77% # Type of FU issued
system.cpu.iq.FU_type_0::SimdSha256Hash             0      0.00%     78.77% # Type of FU issued
system.cpu.iq.FU_type_0::SimdSha256Hash2            0      0.00%     78.77% # Type of FU issued
system.cpu.iq.FU_type_0::SimdShaSigma2              0      0.00%     78.77% # Type of FU issued
system.cpu.iq.FU_type_0::SimdShaSigma3              0      0.00%     78.77% # Type of FU issued
system.cpu.iq.FU_type_0::SimdPredAlu                0      0.00%     78.77% # Type of FU issued
system.cpu.iq.FU_type_0::MemRead              1150297     14.54%     93.32% # Type of FU issued
system.cpu.iq.FU_type_0::MemWrite              445046      5.63%     98.94% # Type of FU issued
system.cpu.iq.FU_type_0::FloatMemRead           49759      0.63%     99.57% # Type of FU issued
system.cpu.iq.FU_type_0::FloatMemWrite          33697      0.43%    100.00% # Type of FU issued
system.cpu.iq.FU_type_0::IprAccess                  0      0.00%    100.00% # Type of FU issued
system.cpu.iq.FU_type_0::InstPrefetch               0      0.00%    100.00% # Type of FU issued
system.cpu.iq.FU_type_0::total                7908800                       # Type of FU issued
system.cpu.iq.FU_type_1::No_OpClass             90940      1.15%      1.15% # Type of FU issued
system.cpu.iq.FU_type_1::IntAlu               5992449     75.74%     76.89% # Type of FU issued
system.cpu.iq.FU_type_1::IntMult                  527      0.01%     76.90% # Type of FU issued
system.cpu.iq.FU_type_1::IntDiv                 46535      0.59%     77.48% # Type of FU issued
system.cpu.iq.FU_type_1::FloatAdd               11841      0.15%     77.63% # Type of FU issued
system.cpu.iq.FU_type_1::FloatCmp                   0      0.00%     77.63% # Type of FU issued
system.cpu.iq.FU_type_1::FloatCvt                1540      0.02%     77.65% # Type of FU issued
system.cpu.iq.FU_type_1::FloatMult                  0      0.00%     77.65% # Type of FU issued
system.cpu.iq.FU_type_1::FloatMultAcc               0      0.00%     77.65% # Type of FU issued
system.cpu.iq.FU_type_1::FloatDiv                   0      0.00%     77.65% # Type of FU issued
system.cpu.iq.FU_type_1::FloatMisc                  0      0.00%     77.65% # Type of FU issued
system.cpu.iq.FU_type_1::FloatSqrt                  0      0.00%     77.65% # Type of FU issued
system.cpu.iq.FU_type_1::SimdAdd                 8709      0.11%     77.76% # Type of FU issued
system.cpu.iq.FU_type_1::SimdAddAcc                 0      0.00%     77.76% # Type of FU issued
system.cpu.iq.FU_type_1::SimdAlu                31607      0.40%     78.16% # Type of FU issued
system.cpu.iq.FU_type_1::SimdCmp                  188      0.00%     78.16% # Type of FU issued
system.cpu.iq.FU_type_1::SimdCvt                21731      0.27%     78.44% # Type of FU issued
system.cpu.iq.FU_type_1::SimdMisc               22127      0.28%     78.72% # Type of FU issued
system.cpu.iq.FU_type_1::SimdMult                   0      0.00%     78.72% # Type of FU issued
system.cpu.iq.FU_type_1::SimdMultAcc                0      0.00%     78.72% # Type of FU issued
system.cpu.iq.FU_type_1::SimdShift               1513      0.02%     78.74% # Type of FU issued
system.cpu.iq.FU_type_1::SimdShiftAcc               0      0.00%     78.74% # Type of FU issued
system.cpu.iq.FU_type_1::SimdDiv                    0      0.00%     78.74% # Type of FU issued
system.cpu.iq.FU_type_1::SimdSqrt                   0      0.00%     78.74% # Type of FU issued
system.cpu.iq.FU_type_1::SimdFloatAdd               5      0.00%     78.74% # Type of FU issued
system.cpu.iq.FU_type_1::SimdFloatAlu               0      0.00%     78.74% # Type of FU issued
system.cpu.iq.FU_type_1::SimdFloatCmp               0      0.00%     78.74% # Type of FU issued
system.cpu.iq.FU_type_1::SimdFloatCvt             191      0.00%     78.74% # Type of FU issued
system.cpu.iq.FU_type_1::SimdFloatDiv               1      0.00%     78.74% # Type of FU issued
system.cpu.iq.FU_type_1::SimdFloatMisc              0      0.00%     78.74% # Type of FU issued
system.cpu.iq.FU_type_1::SimdFloatMult             62      0.00%     78.74% # Type of FU issued
system.cpu.iq.FU_type_1::SimdFloatMultAcc            0      0.00%     78.74% # Type of FU issued
system.cpu.iq.FU_type_1::SimdFloatSqrt              1      0.00%     78.74% # Type of FU issued
system.cpu.iq.FU_type_1::SimdReduceAdd              0      0.00%     78.74% # Type of FU issued
system.cpu.iq.FU_type_1::SimdReduceAlu              0      0.00%     78.74% # Type of FU issued
system.cpu.iq.FU_type_1::SimdReduceCmp              0      0.00%     78.74% # Type of FU issued
system.cpu.iq.FU_type_1::SimdFloatReduceAdd            0      0.00%     78.74% # Type of FU issued
system.cpu.iq.FU_type_1::SimdFloatReduceCmp            0      0.00%     78.74% # Type of FU issued
system.cpu.iq.FU_type_1::SimdAes                    0      0.00%     78.74% # Type of FU issued
system.cpu.iq.FU_type_1::SimdAesMix                 0      0.00%     78.74% # Type of FU issued
system.cpu.iq.FU_type_1::SimdSha1Hash               0      0.00%     78.74% # Type of FU issued
system.cpu.iq.FU_type_1::SimdSha1Hash2              0      0.00%     78.74% # Type of FU issued
system.cpu.iq.FU_type_1::SimdSha256Hash             0      0.00%     78.74% # Type of FU issued
system.cpu.iq.FU_type_1::SimdSha256Hash2            0      0.00%     78.74% # Type of FU issued
system.cpu.iq.FU_type_1::SimdShaSigma2              0      0.00%     78.74% # Type of FU issued
system.cpu.iq.FU_type_1::SimdShaSigma3              0      0.00%     78.74% # Type of FU issued
system.cpu.iq.FU_type_1::SimdPredAlu                0      0.00%     78.74% # Type of FU issued
system.cpu.iq.FU_type_1::MemRead              1152278     14.56%     93.31% # Type of FU issued
system.cpu.iq.FU_type_1::MemWrite              445758      5.63%     98.94% # Type of FU issued
system.cpu.iq.FU_type_1::FloatMemRead           50132      0.63%     99.57% # Type of FU issued
system.cpu.iq.FU_type_1::FloatMemWrite          33810      0.43%    100.00% # Type of FU issued
system.cpu.iq.FU_type_1::IprAccess                  0      0.00%    100.00% # Type of FU issued
system.cpu.iq.FU_type_1::InstPrefetch               0      0.00%    100.00% # Type of FU issued
system.cpu.iq.FU_type_1::total                7911945                       # Type of FU issued
system.cpu.iq.FU_type::total                 15820745      0.00%      0.00% # Type of FU issued
system.cpu.iq.fp_alu_accesses                  666830                       # Number of floating point alu accesses
system.cpu.iq.fp_inst_queue_reads             1051580                       # Number of floating instruction queue reads
system.cpu.iq.fp_inst_queue_wakeup_accesses       338749                       # Number of floating instruction queue wakeup accesses
system.cpu.iq.fp_inst_queue_writes             537668                       # Number of floating instruction queue writes
system.cpu.iq.fu_busy_cnt::0                  4602315                       # FU busy when requested
system.cpu.iq.fu_busy_cnt::1                  4626281                       # FU busy when requested
system.cpu.iq.fu_busy_cnt::total              9228596                       # FU busy when requested
system.cpu.iq.fu_busy_rate::0                0.290904                       # FU busy rate (busy events/executed inst)
system.cpu.iq.fu_busy_rate::1                0.292419                       # FU busy rate (busy events/executed inst)
system.cpu.iq.fu_busy_rate::total            0.583322                       # FU busy rate (busy events/executed inst)
system.cpu.iq.fu_full::No_OpClass                   0      0.00%      0.00% # attempts to use FU when none available
system.cpu.iq.fu_full::IntAlu                 5002690     54.21%     54.21% # attempts to use FU when none available
system.cpu.iq.fu_full::IntMult                    103      0.00%     54.21% # attempts to use FU when none available
system.cpu.iq.fu_full::IntDiv                  433326      4.70%     58.91% # attempts to use FU when none available
system.cpu.iq.fu_full::FloatAdd                 19111      0.21%     59.11% # attempts to use FU when none available
system.cpu.iq.fu_full::FloatCmp                     0      0.00%     59.11% # attempts to use FU when none available
system.cpu.iq.fu_full::FloatCvt                  2126      0.02%     59.14% # attempts to use FU when none available
system.cpu.iq.fu_full::FloatMult                    0      0.00%     59.14% # attempts to use FU when none available
system.cpu.iq.fu_full::FloatMultAcc                 0      0.00%     59.14% # attempts to use FU when none available
system.cpu.iq.fu_full::FloatDiv                     0      0.00%     59.14% # attempts to use FU when none available
system.cpu.iq.fu_full::FloatMisc                    0      0.00%     59.14% # attempts to use FU when none available
system.cpu.iq.fu_full::FloatSqrt                    0      0.00%     59.14% # attempts to use FU when none available
system.cpu.iq.fu_full::SimdAdd                  15594      0.17%     59.30% # attempts to use FU when none available
system.cpu.iq.fu_full::SimdAddAcc                   0      0.00%     59.30% # attempts to use FU when none available
system.cpu.iq.fu_full::SimdAlu                  34528      0.37%     59.68% # attempts to use FU when none available
system.cpu.iq.fu_full::SimdCmp                    353      0.00%     59.68% # attempts to use FU when none available
system.cpu.iq.fu_full::SimdCvt                  36723      0.40%     60.08% # attempts to use FU when none available
system.cpu.iq.fu_full::SimdMisc                 33576      0.36%     60.44% # attempts to use FU when none available
system.cpu.iq.fu_full::SimdMult                     0      0.00%     60.44% # attempts to use FU when none available
system.cpu.iq.fu_full::SimdMultAcc                  0      0.00%     60.44% # attempts to use FU when none available
system.cpu.iq.fu_full::SimdShift                 2175      0.02%     60.47% # attempts to use FU when none available
system.cpu.iq.fu_full::SimdShiftAcc                 0      0.00%     60.47% # attempts to use FU when none available
system.cpu.iq.fu_full::SimdDiv                      0      0.00%     60.47% # attempts to use FU when none available
system.cpu.iq.fu_full::SimdSqrt                     0      0.00%     60.47% # attempts to use FU when none available
system.cpu.iq.fu_full::SimdFloatAdd                10      0.00%     60.47% # attempts to use FU when none available
system.cpu.iq.fu_full::SimdFloatAlu                 0      0.00%     60.47% # attempts to use FU when none available
system.cpu.iq.fu_full::SimdFloatCmp                 0      0.00%     60.47% # attempts to use FU when none available
system.cpu.iq.fu_full::SimdFloatCvt               197      0.00%     60.47% # attempts to use FU when none available
system.cpu.iq.fu_full::SimdFloatDiv                 2      0.00%     60.47% # attempts to use FU when none available
system.cpu.iq.fu_full::SimdFloatMisc                0      0.00%     60.47% # attempts to use FU when none available
system.cpu.iq.fu_full::SimdFloatMult              117      0.00%     60.47% # attempts to use FU when none available
system.cpu.iq.fu_full::SimdFloatMultAcc             0      0.00%     60.47% # attempts to use FU when none available
system.cpu.iq.fu_full::SimdFloatSqrt                0      0.00%     60.47% # attempts to use FU when none available
system.cpu.iq.fu_full::SimdReduceAdd                0      0.00%     60.47% # attempts to use FU when none available
system.cpu.iq.fu_full::SimdReduceAlu                0      0.00%     60.47% # attempts to use FU when none available
system.cpu.iq.fu_full::SimdReduceCmp                0      0.00%     60.47% # attempts to use FU when none available
system.cpu.iq.fu_full::SimdFloatReduceAdd            0      0.00%     60.47% # attempts to use FU when none available
system.cpu.iq.fu_full::SimdFloatReduceCmp            0      0.00%     60.47% # attempts to use FU when none available
system.cpu.iq.fu_full::SimdAes                      0      0.00%     60.47% # attempts to use FU when none available
system.cpu.iq.fu_full::SimdAesMix                   0      0.00%     60.47% # attempts to use FU when none available
system.cpu.iq.fu_full::SimdSha1Hash                 0      0.00%     60.47% # attempts to use FU when none available
system.cpu.iq.fu_full::SimdSha1Hash2                0      0.00%     60.47% # attempts to use FU when none available
system.cpu.iq.fu_full::SimdSha256Hash               0      0.00%     60.47% # attempts to use FU when none available
system.cpu.iq.fu_full::SimdSha256Hash2              0      0.00%     60.47% # attempts to use FU when none available
system.cpu.iq.fu_full::SimdShaSigma2                0      0.00%     60.47% # attempts to use FU when none available
system.cpu.iq.fu_full::SimdShaSigma3                0      0.00%     60.47% # attempts to use FU when none available
system.cpu.iq.fu_full::SimdPredAlu                  0      0.00%     60.47% # attempts to use FU when none available
system.cpu.iq.fu_full::MemRead                2551094     27.64%     88.11% # attempts to use FU when none available
system.cpu.iq.fu_full::MemWrite               1096871     11.89%    100.00% # attempts to use FU when none available
system.cpu.iq.fu_full::FloatMemRead                 0      0.00%    100.00% # attempts to use FU when none available
system.cpu.iq.fu_full::FloatMemWrite                0      0.00%    100.00% # attempts to use FU when none available
system.cpu.iq.fu_full::IprAccess                    0      0.00%    100.00% # attempts to use FU when none available
system.cpu.iq.fu_full::InstPrefetch                 0      0.00%    100.00% # attempts to use FU when none available
system.cpu.iq.int_alu_accesses               33419897                       # Number of integer alu accesses
system.cpu.iq.int_inst_queue_reads           56959903                       # Number of integer instruction queue reads
system.cpu.iq.int_inst_queue_wakeup_accesses     15022791                       # Number of integer instruction queue wakeup accesses
system.cpu.iq.int_inst_queue_writes          19056915                       # Number of integer instruction queue writes
system.cpu.iq.iqInstsAdded                   16639636                       # Number of instructions added to the IQ (excludes non-spec)
system.cpu.iq.iqInstsIssued                  15820745                       # Number of instructions issued
system.cpu.iq.iqNonSpecInstsAdded                2798                       # Number of non-speculative instructions added to the IQ
system.cpu.iq.iqSquashedInstsExamined         2951559                       # Number of squashed instructions iterated over during squash; mainly for profiling
system.cpu.iq.iqSquashedInstsIssued            137275                       # Number of squashed instructions issued
system.cpu.iq.iqSquashedNonSpecRemoved            151                       # Number of squashed non-spec instructions that were removed
system.cpu.iq.iqSquashedOperandsExamined      4098371                       # Number of squashed operands that are examined and possibly removed from graph
system.cpu.iq.issued_per_cycle::samples       7784214                       # Number of insts issued each cycle
system.cpu.iq.issued_per_cycle::mean         2.032414                       # Number of insts issued each cycle
system.cpu.iq.issued_per_cycle::stdev        1.992366                       # Number of insts issued each cycle
system.cpu.iq.issued_per_cycle::underflows            0      0.00%      0.00% # Number of insts issued each cycle
system.cpu.iq.issued_per_cycle::0             2877401     36.96%     36.96% # Number of insts issued each cycle
system.cpu.iq.issued_per_cycle::1             1038084     13.34%     50.30% # Number of insts issued each cycle
system.cpu.iq.issued_per_cycle::2              683428      8.78%     59.08% # Number of insts issued each cycle
system.cpu.iq.issued_per_cycle::3              785630     10.09%     69.17% # Number of insts issued each cycle
system.cpu.iq.issued_per_cycle::4             1234000     15.85%     85.03% # Number of insts issued each cycle
system.cpu.iq.issued_per_cycle::5              908771     11.67%     96.70% # Number of insts issued each cycle
system.cpu.iq.issued_per_cycle::6              224331      2.88%     99.58% # Number of insts issued each cycle
system.cpu.iq.issued_per_cycle::7               27478      0.35%     99.93% # Number of insts issued each cycle
system.cpu.iq.issued_per_cycle::8                5091      0.07%    100.00% # Number of insts issued each cycle
system.cpu.iq.issued_per_cycle::overflows            0      0.00%    100.00% # Number of insts issued each cycle
system.cpu.iq.issued_per_cycle::min_value            0                       # Number of insts issued each cycle
system.cpu.iq.issued_per_cycle::max_value            8                       # Number of insts issued each cycle
system.cpu.iq.issued_per_cycle::total         7784214                       # Number of insts issued each cycle
system.cpu.iq.rate                           1.983619                       # Inst issue rate
system.cpu.iq.vec_alu_accesses                      0                       # Number of vector alu accesses
system.cpu.iq.vec_inst_queue_reads                  0                       # Number of vector instruction queue reads
system.cpu.iq.vec_inst_queue_wakeup_accesses            0                       # Number of vector instruction queue wakeup accesses
system.cpu.iq.vec_inst_queue_writes                 0                       # Number of vector instruction queue writes
system.cpu.memDep0.conflictingLoads             15500                       # Number of conflicting loads.
system.cpu.memDep0.conflictingStores             6894                       # Number of conflicting stores.
system.cpu.memDep0.insertedLoads              1108744                       # Number of loads inserted to the mem dependence unit.
system.cpu.memDep0.insertedStores              522290                       # Number of stores inserted to the mem dependence unit.
system.cpu.memDep1.conflictingLoads             15232                       # Number of conflicting loads.
system.cpu.memDep1.conflictingStores             6529                       # Number of conflicting stores.
system.cpu.memDep1.insertedLoads              1108087                       # Number of loads inserted to the mem dependence unit.
system.cpu.memDep1.insertedStores              522666                       # Number of stores inserted to the mem dependence unit.
system.cpu.misc_regfile_reads                 6366595                       # number of misc regfile reads
system.cpu.misc_regfile_writes                   1584                       # number of misc regfile writes
system.cpu.numCycles                          7975698                       # number of cpu cycles simulated
system.cpu.numWorkItemsCompleted                    0                       # number of work items this cpu completed
system.cpu.numWorkItemsStarted                      0                       # number of work items this cpu started
system.cpu.timesIdled                            4109                       # Number of times that the entire CPU went into an idle state and unscheduled itself
system.cpu.workload0.numSyscalls                  117                       # Number of system calls
system.cpu.workload1.numSyscalls                  117                       # Number of system calls
system.membus.snoop_filter.hit_multi_requests            0                       # Number of requests hitting in the snoop filter with multiple (>1) holders of the requested data.
system.membus.snoop_filter.hit_multi_snoops            0                       # Number of snoops hitting in the snoop filter with multiple (>1) holders of the requested data.
system.membus.snoop_filter.hit_single_requests         1940                       # Number of requests hitting in the snoop filter with a single holder of the requested data.
system.membus.snoop_filter.hit_single_snoops            0                       # Number of snoops hitting in the snoop filter with a single holder of the requested data.
system.membus.snoop_filter.tot_requests         51330                       # Total number of requests made to the snoop filter.
system.membus.snoop_filter.tot_snoops               0                       # Total number of snoops made to the snoop filter.
system.tol2bus.snoop_filter.hit_multi_requests          127                       # Number of requests hitting in the snoop filter with multiple (>1) holders of the requested data.
system.tol2bus.snoop_filter.hit_multi_snoops            0                       # Number of snoops hitting in the snoop filter with multiple (>1) holders of the requested data.
system.tol2bus.snoop_filter.hit_single_requests       121947                       # Number of requests hitting in the snoop filter with a single holder of the requested data.
system.tol2bus.snoop_filter.hit_single_snoops           33                       # Number of snoops hitting in the snoop filter with a single holder of the requested data.
system.tol2bus.snoop_filter.tot_requests       244638                       # Total number of requests made to the snoop filter.
system.tol2bus.snoop_filter.tot_snoops             33                       # Total number of snoops made to the snoop filter.
sim_insts                                     7620474                       # Number of instructions simulated
sim_ops                                      13690844                       # Number of ops (including micro ops) simulated
host_inst_rate                                 189361                       # Simulator instruction rate (inst/s)
host_op_rate                                   340203                       # Simulator op (including micro ops) rate (op/s)
system.clk_domain.clock                          1000                       # Clock period in ticks
system.cpu.branchPred.lookups                 1818498                       # Number of BP lookups
system.cpu.branchPred.condPredicted           1459508                       # Number of conditional branches predicted
system.cpu.branchPred.condIncorrect             84134                       # Number of conditional branches incorrect
system.cpu.branchPred.BTBLookups               837874                       # Number of BTB lookups
system.cpu.branchPred.BTBHits                  791523                       # Number of BTB hits
system.cpu.branchPred.BTBHitPct             94.468023                       # BTB Hit Percentage
system.cpu.branchPred.RASUsed                   80018                       # Number of times the RAS was used to get a target.
system.cpu.branchPred.RASIncorrect                101                       # Number of incorrect RAS predictions.
system.cpu.branchPred.indirectLookups           74578                       # Number of indirect predictor lookups.
system.cpu.branchPred.indirectHits              45290                       # Number of indirect target hits.
system.cpu.branchPred.indirectMisses            29288                       # Number of indirect misses.
system.cpu.branchPred.indirectMispredicted         5900                       # Number of mispredicted indirect branches.
system.cpu.branchPred.power_state.pwrStateResidencyTicks::UNDEFINED   3987848500                       # Cumulative time (in ticks) in various power states
system.cpu.commit.commitSquashedInsts         2839079                       # The number of squashed insts skipped by commit
system.cpu.commit.commitNonSpecStalls            2646                       # The number of times commit has been forced to stall to communicate backwards
system.cpu.commit.branchMispredicts             66739                       # The number of times a branch was mispredicted
system.cpu.commit.numCommittedDist::samples      7766114                       # Number of insts commited each cycle
system.cpu.commit.numCommittedDist::mean     1.762895                       # Number of insts commited each cycle
system.cpu.commit.numCommittedDist::stdev     2.707039                       # Number of insts commited each cycle
system.cpu.commit.numCommittedDist::underflows            0      0.00%      0.00% # Number of insts commited each cycle
system.cpu.commit.numCommittedDist::0         4553548     58.63%     58.63% # Number of insts commited each cycle
system.cpu.commit.numCommittedDist::1          620828      7.99%     66.63% # Number of insts commited each cycle
system.cpu.commit.numCommittedDist::2          354570      4.57%     71.19% # Number of insts commited each cycle
system.cpu.commit.numCommittedDist::3          779439     10.04%     81.23% # Number of insts commited each cycle
system.cpu.commit.numCommittedDist::4          185614      2.39%     83.62% # Number of insts commited each cycle
system.cpu.commit.numCommittedDist::5          141929      1.83%     85.45% # Number of insts commited each cycle
system.cpu.commit.numCommittedDist::6          103757      1.34%     86.78% # Number of insts commited each cycle
system.cpu.commit.numCommittedDist::7          263516      3.39%     90.18% # Number of insts commited each cycle
system.cpu.commit.numCommittedDist::8          762913      9.82%    100.00% # Number of insts commited each cycle
system.cpu.commit.numCommittedDist::overflows            0      0.00%    100.00% # Number of insts commited each cycle
system.cpu.commit.numCommittedDist::min_value            0                       # Number of insts commited each cycle
system.cpu.commit.numCommittedDist::max_value            8                       # Number of insts commited each cycle
system.cpu.commit.numCommittedDist::total      7766114                       # Number of insts commited each cycle
system.cpu.commit.instsCommitted::0           3810237                       # Number of instructions committed
system.cpu.commit.instsCommitted::1           3810237                       # Number of instructions committed
system.cpu.commit.instsCommitted::total       7620474                       # Number of instructions committed
system.cpu.commit.opsCommitted::0             6845422                       # Number of ops (including micro ops) committed
system.cpu.commit.opsCommitted::1             6845422                       # Number of ops (including micro ops) committed
system.cpu.commit.opsCommitted::total        13690844                       # Number of ops (including micro ops) committed
system.cpu.commit.memRefs::0                  1310433                       # Number of memory references committed
system.cpu.commit.memRefs::1                  1310433                       # Number of memory references committed
system.cpu.commit.memRefs::total              2620866                       # Number of memory references committed
system.cpu.commit.loads::0                     905312                       # Number of loads committed
system.cpu.commit.loads::1                     905312                       # Number of loads committed
system.cpu.commit.loads::total                1810624                       # Number of loads committed
system.cpu.commit.amos::0                           0                       # Number of atomic instructions committed
system.cpu.commit.amos::1                           0                       # Number of atomic instructions committed
system.cpu.commit.amos::total                       0                       # Number of atomic instructions committed
system.cpu.commit.membars::0                      354                       # Number of memory barriers committed
system.cpu.commit.membars::1                      354                       # Number of memory barriers committed
system.cpu.commit.membars::total                  708                       # Number of memory barriers committed
system.cpu.commit.branches::0                  679817                       # Number of branches committed
system.cpu.commit.branches::1                  679817                       # Number of branches committed
system.cpu.commit.branches::total             1359634                       # Number of branches committed
system.cpu.commit.vector::0                         0                       # Number of committed Vector instructions.
system.cpu.commit.vector::1                         0                       # Number of committed Vector instructions.
system.cpu.commit.vector::total                     0                       # Number of committed Vector instructions.
system.cpu.commit.floating::0                  132636                       # Number of committed floating point instructions.
system.cpu.commit.floating::1                  132636                       # Number of committed floating point instructions.
system.cpu.commit.floating::total              265272                       # Number of committed floating point instructions.
system.cpu.commit.integer::0                  6711682                       # Number of committed integer instructions.
system.cpu.commit.integer::1                  6711682                       # Number of committed integer instructions.
system.cpu.commit.integer::total             13423364                       # Number of committed integer instructions.
system.cpu.commit.functionCalls::0              32403                       # Number of function calls committed.
system.cpu.commit.functionCalls::1              32403                       # Number of function calls committed.
system.cpu.commit.functionCalls::total          64806                       # Number of function calls committed.
system.cpu.commit.committedInstType_0::No_OpClass        65412      0.96%      0.96% # Class of committed instruction
system.cpu.commit.committedInstType_0::IntAlu      5345366     78.09%     79.04% # Class of committed instruction
system.cpu.commit.committedInstType_0::IntMult          484      0.01%     79.05% # Class of committed instruction
system.cpu.commit.committedInstType_0::IntDiv        46057      0.67%     79.72% # Class of committed instruction
system.cpu.commit.committedInstType_0::FloatAdd         7566      0.11%     79.83% # Class of committed instruction
system.cpu.commit.committedInstType_0::FloatCmp            0      0.00%     79.83% # Class of committed instruction
system.cpu.commit.committedInstType_0::FloatCvt         1408      0.02%     79.85% # Class of committed instruction
system.cpu.commit.committedInstType_0::FloatMult            0      0.00%     79.85% # Class of committed instruction
system.cpu.commit.committedInstType_0::FloatMultAcc            0      0.00%     79.85% # Class of committed instruction
system.cpu.commit.committedInstType_0::FloatDiv            0      0.00%     79.85% # Class of committed instruction
system.cpu.commit.committedInstType_0::FloatMisc            0      0.00%     79.85% # Class of committed instruction
system.cpu.commit.committedInstType_0::FloatSqrt            0      0.00%     79.85% # Class of committed instruction
system.cpu.commit.committedInstType_0::SimdAdd         7892      0.12%     79.97% # Class of committed instruction
system.cpu.commit.committedInstType_0::SimdAddAcc            0      0.00%     79.97% # Class of committed instruction
system.cpu.commit.committedInstType_0::SimdAlu        20535      0.30%     80.27% # Class of committed instruction
system.cpu.commit.committedInstType_0::SimdCmp          174      0.00%     80.27% # Class of committed instruction
system.cpu.commit.committedInstType_0::SimdCvt        18930      0.28%     80.55% # Class of committed instruction
system.cpu.commit.committedInstType_0::SimdMisc        19572      0.29%     80.83% # Class of committed instruction
system.cpu.commit.committedInstType_0::SimdMult            0      0.00%     80.83% # Class of committed instruction
system.cpu.commit.committedInstType_0::SimdMultAcc            0      0.00%     80.83% # Class of committed instruction
system.cpu.commit.committedInstType_0::SimdShift         1377      0.02%     80.85% # Class of committed instruction
system.cpu.commit.committedInstType_0::SimdShiftAcc            0      0.00%     80.85% # Class of committed instruction
system.cpu.commit.committedInstType_0::SimdDiv            0      0.00%     80.85% # Class of committed instruction
system.cpu.commit.committedInstType_0::SimdSqrt            0      0.00%     80.85% # Class of committed instruction
system.cpu.commit.committedInstType_0::SimdFloatAdd            5      0.00%     80.85% # Class of committed instruction
system.cpu.commit.committedInstType_0::SimdFloatAlu            0      0.00%     80.85% # Class of committed instruction
system.cpu.commit.committedInstType_0::SimdFloatCmp            0      0.00%     80.85% # Class of committed instruction
system.cpu.commit.committedInstType_0::SimdFloatCvt          157      0.00%     80.86% # Class of committed instruction
system.cpu.commit.committedInstType_0::SimdFloatDiv            1      0.00%     80.86% # Class of committed instruction
system.cpu.commit.committedInstType_0::SimdFloatMisc            0      0.00%     80.86% # Class of committed instruction
system.cpu.commit.committedInstType_0::SimdFloatMult           52      0.00%     80.86% # Class of committed instruction
system.cpu.commit.committedInstType_0::SimdFloatMultAcc            0      0.00%     80.86% # Class of committed instruction
system.cpu.commit.committedInstType_0::SimdFloatSqrt            1      0.00%     80.86% # Class of committed instruction
system.cpu.commit.committedInstType_0::SimdReduceAdd            0      0.00%     80.86% # Class of committed instruction
system.cpu.commit.committedInstType_0::SimdReduceAlu            0      0.00%     80.86% # Class of committed instruction
system.cpu.commit.committedInstType_0::SimdReduceCmp            0      0.00%     80.86% # Class of committed instruction
system.cpu.commit.committedInstType_0::SimdFloatReduceAdd            0      0.00%     80.86% # Class of committed instruction
system.cpu.commit.committedInstType_0::SimdFloatReduceCmp            0      0.00%     80.86% # Class of committed instruction
system.cpu.commit.committedInstType_0::SimdAes            0      0.00%     80.86% # Class of committed instruction
system.cpu.commit.committedInstType_0::SimdAesMix            0      0.00%     80.86% # Class of committed instruction
system.cpu.commit.committedInstType_0::SimdSha1Hash            0      0.00%     80.86% # Class of committed instruction
system.cpu.commit.committedInstType_0::SimdSha1Hash2            0      0.00%     80.86% # Class of committed instruction
system.cpu.commit.committedInstType_0::SimdSha256Hash            0      0.00%     80.86% # Class of committed instruction
system.cpu.commit.committedInstType_0::SimdSha256Hash2            0      0.00%     80.86% # Class of committed instruction
system.cpu.commit.committedInstType_0::SimdShaSigma2            0      0.00%     80.86% # Class of committed instruction
system.cpu.commit.committedInstType_0::SimdShaSigma3            0      0.00%     80.86% # Class of committed instruction
system.cpu.commit.committedInstType_0::SimdPredAlu            0      0.00%     80.86% # Class of committed instruction
system.cpu.commit.committedInstType_0::MemRead       878591     12.83%     93.69% # Class of committed instruction
system.cpu.commit.committedInstType_0::MemWrite       380675      5.56%     99.25% # Class of committed instruction
system.cpu.commit.committedInstType_0::FloatMemRead        26721      0.39%     99.64% # Class of committed instruction
system.cpu.commit.committedInstType_0::FloatMemWrite        24446      0.36%    100.00% # Class of committed instruction
system.cpu.commit.committedInstType_0::IprAccess            0      0.00%    100.00% # Class of committed instruction
system.cpu.commit.committedInstType_0::InstPrefetch            0      0.00%    100.00% # Class of committed instruction
system.cpu.commit.committedInstType_0::total      6845422                       # Class of committed instruction
system.cpu.commit.committedInstType_1::No_OpClass        65412      0.96%      0.96% # Class of committed instruction
system.cpu.commit.committedInstType_1::IntAlu      5345366     78.09%     79.04% # Class of committed instruction
system.cpu.commit.committedInstType_1::IntMult          484      0.01%     79.05% # Class of committed instruction
system.cpu.commit.committedInstType_1::IntDiv        46057      0.67%     79.72% # Class of committed instruction
system.cpu.commit.committedInstType_1::FloatAdd         7566      0.11%     79.83% # Class of committed instruction
system.cpu.commit.committedInstType_1::FloatCmp            0      0.00%     79.83% # Class of committed instruction
system.cpu.commit.committedInstType_1::FloatCvt         1408      0.02%     79.85% # Class of committed instruction
system.cpu.commit.committedInstType_1::FloatMult            0      0.00%     79.85% # Class of committed instruction
system.cpu.commit.committedInstType_1::FloatMultAcc            0      0.00%     79.85% # Class of committed instruction
system.cpu.commit.committedInstType_1::FloatDiv            0      0.00%     79.85% # Class of committed instruction
system.cpu.commit.committedInstType_1::FloatMisc            0      0.00%     79.85% # Class of committed instruction
system.cpu.commit.committedInstType_1::FloatSqrt            0      0.00%     79.85% # Class of committed instruction
system.cpu.commit.committedInstType_1::SimdAdd         7892      0.12%     79.97% # Class of committed instruction
system.cpu.commit.committedInstType_1::SimdAddAcc            0      0.00%     79.97% # Class of committed instruction
system.cpu.commit.committedInstType_1::SimdAlu        20535      0.30%     80.27% # Class of committed instruction
system.cpu.commit.committedInstType_1::SimdCmp          174      0.00%     80.27% # Class of committed instruction
system.cpu.commit.committedInstType_1::SimdCvt        18930      0.28%     80.55% # Class of committed instruction
system.cpu.commit.committedInstType_1::SimdMisc        19572      0.29%     80.83% # Class of committed instruction
system.cpu.commit.committedInstType_1::SimdMult            0      0.00%     80.83% # Class of committed instruction
system.cpu.commit.committedInstType_1::SimdMultAcc            0      0.00%     80.83% # Class of committed instruction
system.cpu.commit.committedInstType_1::SimdShift         1377      0.02%     80.85% # Class of committed instruction
system.cpu.commit.committedInstType_1::SimdShiftAcc            0      0.00%     80.85% # Class of committed instruction
system.cpu.commit.committedInstType_1::SimdDiv            0      0.00%     80.85% # Class of committed instruction
system.cpu.commit.committedInstType_1::SimdSqrt            0      0.00%     80.85% # Class of committed instruction
system.cpu.commit.committedInstType_1::SimdFloatAdd            5      0.00%     80.85% # Class of committed instruction
system.cpu.commit.committedInstType_1::SimdFloatAlu            0      0.00%     80.85% # Class of committed instruction
system.cpu.commit.committedInstType_1::SimdFloatCmp            0      0.00%     80.85% # Class of committed instruction
system.cpu.commit.committedInstType_1::SimdFloatCvt          157      0.00%     80.86% # Class of committed instruction
system.cpu.commit.committedInstType_1::SimdFloatDiv            1      0.00%     80.86% # Class of committed instruction
system.cpu.commit.committedInstType_1::SimdFloatMisc            0      0.00%     80.86% # Class of committed instruction
system.cpu.commit.committedInstType_1::SimdFloatMult           52      0.00%     80.86% # Class of committed instruction
system.cpu.commit.committedInstType_1::SimdFloatMultAcc            0      0.00%     80.86% # Class of committed instruction
system.cpu.commit.committedInstType_1::SimdFloatSqrt            1      0.00%     80.86% # Class of committed instruction
system.cpu.commit.committedInstType_1::SimdReduceAdd            0      0.00%     80.86% # Class of committed instruction
system.cpu.commit.committedInstType_1::SimdReduceAlu            0      0.00%     80.86% # Class of committed instruction
system.cpu.commit.committedInstType_1::SimdReduceCmp            0      0.00%     80.86% # Class of committed instruction
system.cpu.commit.committedInstType_1::SimdFloatReduceAdd            0      0.00%     80.86% # Class of committed instruction
system.cpu.commit.committedInstType_1::SimdFloatReduceCmp            0      0.00%     80.86% # Class of committed instruction
system.cpu.commit.committedInstType_1::SimdAes            0      0.00%     80.86% # Class of committed instruction
system.cpu.commit.committedInstType_1::SimdAesMix            0      0.00%     80.86% # Class of committed instruction
system.cpu.commit.committedInstType_1::SimdSha1Hash            0      0.00%     80.86% # Class of committed instruction
system.cpu.commit.committedInstType_1::SimdSha1Hash2            0      0.00%     80.86% # Class of committed instruction
system.cpu.commit.committedInstType_1::SimdSha256Hash            0      0.00%     80.86% # Class of committed instruction
system.cpu.commit.committedInstType_1::SimdSha256Hash2            0      0.00%     80.86% # Class of committed instruction
system.cpu.commit.committedInstType_1::SimdShaSigma2            0      0.00%     80.86% # Class of committed instruction
system.cpu.commit.committedInstType_1::SimdShaSigma3            0      0.00%     80.86% # Class of committed instruction
system.cpu.commit.committedInstType_1::SimdPredAlu            0      0.00%     80.86% # Class of committed instruction
system.cpu.commit.committedInstType_1::MemRead       878591     12.83%     93.69% # Class of committed instruction
system.cpu.commit.committedInstType_1::MemWrite       380675      5.56%     99.25% # Class of committed instruction
system.cpu.commit.committedInstType_1::FloatMemRead        26721      0.39%     99.64% # Class of committed instruction
system.cpu.commit.committedInstType_1::FloatMemWrite        24446      0.36%    100.00% # Class of committed instruction
system.cpu.commit.committedInstType_1::IprAccess            0      0.00%    100.00% # Class of committed instruction
system.cpu.commit.committedInstType_1::InstPrefetch            0      0.00%    100.00% # Class of committed instruction
system.cpu.commit.committedInstType_1::total      6845422                       # Class of committed instruction
system.cpu.commit.committedInstType::total     13690844      0.00%      0.00% # Class of committed instruction
system.cpu.commit.commitEligibleSamples        762913                       # number cycles where commit BW limit reached
system.cpu.dcache.demand_hits::.cpu.data      2515999                       # number of demand (read+write) hits
system.cpu.dcache.demand_hits::total          2515999                       # number of demand (read+write) hits
system.cpu.dcache.overall_hits::.cpu.data      2515999                       # number of overall hits
system.cpu.dcache.overall_hits::total         2515999                       # number of overall hits
system.cpu.dcache.demand_misses::.cpu.data       258949                       # number of demand (read+write) misses
system.cpu.dcache.demand_misses::total         258949                       # number of demand (read+write) misses
system.cpu.dcache.overall_misses::.cpu.data       258949                       # number of overall misses
system.cpu.dcache.overall_misses::total        258949                       # number of overall misses
system.cpu.dcache.demand_miss_latency::.cpu.data  11416756350                       # number of demand (read+write) miss cycles
system.cpu.dcache.demand_miss_latency::total  11416756350                       # number of demand (read+write) miss cycles
system.cpu.dcache.overall_miss_latency::.cpu.data  11416756350                       # number of overall miss cycles
system.cpu.dcache.overall_miss_latency::total  11416756350                       # number of overall miss cycles
system.cpu.dcache.demand_accesses::.cpu.data      2774948                       # number of demand (read+write) accesses
system.cpu.dcache.demand_accesses::total      2774948                       # number of demand (read+write) accesses
system.cpu.dcache.overall_accesses::.cpu.data      2774948                       # number of overall (read+write) accesses
system.cpu.dcache.overall_accesses::total      2774948                       # number of overall (read+write) accesses
system.cpu.dcache.demand_miss_rate::.cpu.data     0.093317                       # miss rate for demand accesses
system.cpu.dcache.demand_miss_rate::total     0.093317                       # miss rate for demand accesses
system.cpu.dcache.overall_miss_rate::.cpu.data     0.093317                       # miss rate for overall accesses
system.cpu.dcache.overall_miss_rate::total     0.093317                       # miss rate for overall accesses
system.cpu.dcache.demand_avg_miss_latency::.cpu.data 44088.821930                       # average overall miss latency
system.cpu.dcache.demand_avg_miss_latency::total 44088.821930                       # average overall miss latency
system.cpu.dcache.overall_avg_miss_latency::.cpu.data 44088.821930                       # average overall miss latency
system.cpu.dcache.overall_avg_miss_latency::total 44088.821930                       # average overall miss latency
system.cpu.dcache.blocked_cycles::no_mshrs           29                       # number of cycles access was blocked
system.cpu.dcache.blocked_cycles::no_targets       845560                       # number of cycles access was blocked
system.cpu.dcache.blocked::no_mshrs                 5                       # number of cycles access was blocked
system.cpu.dcache.blocked::no_targets           11049                       # number of cycles access was blocked
system.cpu.dcache.avg_blocked_cycles::no_mshrs     5.800000                       # average number of cycles each access was blocked
system.cpu.dcache.avg_blocked_cycles::no_targets    76.528193                       # average number of cycles each access was blocked
system.cpu.dcache.writebacks::.writebacks       100295                       # number of writebacks
system.cpu.dcache.writebacks::total            100295                       # number of writebacks
system.cpu.dcache.demand_mshr_hits::.cpu.data       158423                       # number of demand (read+write) MSHR hits
system.cpu.dcache.demand_mshr_hits::total       158423                       # number of demand (read+write) MSHR hits
system.cpu.dcache.overall_mshr_hits::.cpu.data       158423                       # number of overall MSHR hits
system.cpu.dcache.overall_mshr_hits::total       158423                       # number of overall MSHR hits
system.cpu.dcache.demand_mshr_misses::.cpu.data       100526                       # number of demand (read+write) MSHR misses
system.cpu.dcache.demand_mshr_misses::total       100526                       # number of demand (read+write) MSHR misses
system.cpu.dcache.overall_mshr_misses::.cpu.data       100526                       # number of overall MSHR misses
system.cpu.dcache.overall_mshr_misses::total       100526                       # number of overall MSHR misses
system.cpu.dcache.demand_mshr_miss_latency::.cpu.data   3618680350                       # number of demand (read+write) MSHR miss cycles
system.cpu.dcache.demand_mshr_miss_latency::total   3618680350                       # number of demand (read+write) MSHR miss cycles
system.cpu.dcache.overall_mshr_miss_latency::.cpu.data   3618680350                       # number of overall MSHR miss cycles
system.cpu.dcache.overall_mshr_miss_latency::total   3618680350                       # number of overall MSHR miss cycles
system.cpu.dcache.demand_mshr_miss_rate::.cpu.data     0.036226                       # mshr miss rate for demand accesses
system.cpu.dcache.demand_mshr_miss_rate::total     0.036226                       # mshr miss rate for demand accesses
system.cpu.dcache.overall_mshr_miss_rate::.cpu.data     0.036226                       # mshr miss rate for overall accesses
system.cpu.dcache.overall_mshr_miss_rate::total     0.036226                       # mshr miss rate for overall accesses
system.cpu.dcache.demand_avg_mshr_miss_latency::.cpu.data 35997.456877                       # average overall mshr miss latency
system.cpu.dcache.demand_avg_mshr_miss_latency::total 35997.456877                       # average overall mshr miss latency
system.cpu.dcache.overall_avg_mshr_miss_latency::.cpu.data 35997.456877                       # average overall mshr miss latency
system.cpu.dcache.overall_avg_mshr_miss_latency::total 35997.456877                       # average overall mshr miss latency
system.cpu.dcache.replacements                   3968                       # number of replacements
system.cpu.dcache.expired                       96327                       # dead blocks evicted
system.cpu.dcache.ReadReq_hits::.cpu.data      1725043                       # number of ReadReq hits
system.cpu.dcache.ReadReq_hits::total         1725043                       # number of ReadReq hits
system.cpu.dcache.ReadReq_misses::.cpu.data       239537                       # number of ReadReq misses
system.cpu.dcache.ReadReq_misses::total        239537                       # number of ReadReq misses
system.cpu.dcache.ReadReq_miss_latency::.cpu.data  10558794500                       # number of ReadReq miss cycles
system.cpu.dcache.ReadReq_miss_latency::total  10558794500                       # number of ReadReq miss cycles
system.cpu.dcache.ReadReq_accesses::.cpu.data      1964580                       # number of ReadReq accesses(hits+misses)
system.cpu.dcache.ReadReq_accesses::total      1964580                       # number of ReadReq accesses(hits+misses)
system.cpu.dcache.ReadReq_miss_rate::.cpu.data     0.121928                       # miss rate for ReadReq accesses
system.cpu.dcache.ReadReq_miss_rate::total     0.121928                       # miss rate for ReadReq accesses
system.cpu.dcache.ReadReq_avg_miss_latency::.cpu.data 44080.014779                       # average ReadReq miss latency
system.cpu.dcache.ReadReq_avg_miss_latency::total 44080.014779                       # average ReadReq miss latency
system.cpu.dcache.ReadReq_mshr_hits::.cpu.data       158370                       # number of ReadReq MSHR hits
system.cpu.dcache.ReadReq_mshr_hits::total       158370                       # number of ReadReq MSHR hits
system.cpu.dcache.ReadReq_mshr_misses::.cpu.data        81167                       # number of ReadReq MSHR misses
system.cpu.dcache.ReadReq_mshr_misses::total        81167                       # number of ReadReq MSHR misses
system.cpu.dcache.ReadReq_mshr_miss_latency::.cpu.data   2780825000                       # number of ReadReq MSHR miss cycles
system.cpu.dcache.ReadReq_mshr_miss_latency::total   2780825000                       # number of ReadReq MSHR miss cycles
system.cpu.dcache.ReadReq_mshr_miss_rate::.cpu.data     0.041315                       # mshr miss rate for ReadReq accesses
system.cpu.dcache.ReadReq_mshr_miss_rate::total     0.041315                       # mshr miss rate for ReadReq accesses
system.cpu.dcache.ReadReq_avg_mshr_miss_latency::.cpu.data 34260.536918                       # average ReadReq mshr miss latency
system.cpu.dcache.ReadReq_avg_mshr_miss_latency::total 34260.536918                       # average ReadReq mshr miss latency
system.cpu.dcache.WriteReq_hits::.cpu.data       790956                       # number of WriteReq hits
system.cpu.dcache.WriteReq_hits::total         790956                       # number of WriteReq hits
system.cpu.dcache.WriteReq_misses::.cpu.data        19412                       # number of WriteReq misses
system.cpu.dcache.WriteReq_misses::total        19412                       # number of WriteReq misses
system.cpu.dcache.WriteReq_miss_latency::.cpu.data    857961850                       # number of WriteReq miss cycles
system.cpu.dcache.WriteReq_miss_latency::total    857961850                       # number of WriteReq miss cycles
system.cpu.dcache.WriteReq_accesses::.cpu.data       810368                       # number of WriteReq accesses(hits+misses)
system.cpu.dcache.WriteReq_accesses::total       810368                       # number of WriteReq accesses(hits+misses)
system.cpu.dcache.WriteReq_miss_rate::.cpu.data     0.023955                       # miss rate for WriteReq accesses
system.cpu.dcache.WriteReq_miss_rate::total     0.023955                       # miss rate for WriteReq accesses
system.cpu.dcache.WriteReq_avg_miss_latency::.cpu.data 44197.498970                       # average WriteReq miss latency
system.cpu.dcache.WriteReq_avg_miss_latency::total 44197.498970                       # average WriteReq miss latency
system.cpu.dcache.WriteReq_mshr_hits::.cpu.data           53                       # number of WriteReq MSHR hits
system.cpu.dcache.WriteReq_mshr_hits::total           53                       # number of WriteReq MSHR hits
system.cpu.dcache.WriteReq_mshr_misses::.cpu.data        19359                       # number of WriteReq MSHR misses
system.cpu.dcache.WriteReq_mshr_misses::total        19359                       # number of WriteReq MSHR misses
system.cpu.dcache.WriteReq_mshr_miss_latency::.cpu.data    837855350                       # number of WriteReq MSHR miss cycles
system.cpu.dcache.WriteReq_mshr_miss_latency::total    837855350                       # number of WriteReq MSHR miss cycles
system.cpu.dcache.WriteReq_mshr_miss_rate::.cpu.data     0.023889                       # mshr miss rate for WriteReq accesses
system.cpu.dcache.WriteReq_mshr_miss_rate::total     0.023889                       # mshr miss rate for WriteReq accesses
system.cpu.dcache.WriteReq_avg_mshr_miss_latency::.cpu.data 43279.887907                       # average WriteReq mshr miss latency
system.cpu.dcache.WriteReq_avg_mshr_miss_latency::total 43279.887907                       # average WriteReq mshr miss latency
system.cpu.dcache.power_state.pwrStateResidencyTicks::UNDEFINED   3987848500                       # Cumulative time (in ticks) in various power states
system.cpu.dcache.tags.tagsinuse           181.700467                       # Cycle average of tags in use
system.cpu.dcache.tags.total_refs             2616527                       # Total number of references to valid blocks.
system.cpu.dcache.tags.sampled_refs            100517                       # Sample count of references to valid blocks.
system.cpu.dcache.tags.avg_refs             26.030691                       # Average number of references to valid blocks.
system.cpu.dcache.tags.warmup_cycle            192500                       # Cycle when the warmup percentage was hit.
system.cpu.dcache.tags.occ_blocks::.cpu.data   181.700467                       # Average occupied blocks per requestor
system.cpu.dcache.tags.occ_percent::.cpu.data     0.354884                       # Average percentage of cache occupancy
system.cpu.dcache.tags.occ_percent::total     0.354884                       # Average percentage of cache occupancy
system.cpu.dcache.tags.occ_task_id_blocks::1024          222                       # Occupied blocks per task id
system.cpu.dcache.tags.age_task_id_blocks_1024::0          202                       # Occupied blocks per task id
system.cpu.dcache.tags.age_task_id_blocks_1024::1           20                       # Occupied blocks per task id
system.cpu.dcache.tags.occ_task_id_percent::1024     0.433594                       # Percentage of cache occupancy per task id
system.cpu.dcache.tags.tag_accesses          22300101                       # Number of tag accesses
system.cpu.dcache.tags.data_accesses         22300101                       # Number of data accesses
system.cpu.dcache.tags.power_state.pwrStateResidencyTicks::UNDEFINED   3987848500                       # Cumulative time (in ticks) in various power states
system.cpu.decode.idleCycles                  2534798                       # Number of cycles decode is idle
system.cpu.decode.blockedCycles               7608685                       # Number of cycles decode is blocked
system.cpu.decode.runCycles                   4296289                       # Number of cycles decode is running
system.cpu.decode.unblockCycles               1060299                       # Number of cycles decode is unblocking
system.cpu.decode.squashCycles                  68357                       # Number of cycles decode is squashing
system.cpu.decode.branchResolved               755480                       # Number of times decode resolved a  branch
system.cpu.decode.branchMispred                 18282                       # Number of times decode detected a branch misprediction
system.cpu.decode.decodedInsts               17076314                       # Number of instructions handled by decode
system.cpu.decode.squashedInsts                338129                       # Number of squashed instructions handled by decode
system.cpu.dtb.rdAccesses                     2074174                       # TLB accesses on read requests
system.cpu.dtb.wrAccesses                      938958                       # TLB accesses on write requests
system.cpu.dtb.rdMisses                        173381                       # TLB misses on read requests
system.cpu.dtb.wrMisses                         10614                       # TLB misses on write requests
system.cpu.dtb.walker.power_state.pwrStateResidencyTicks::UNDEFINED   3987848500                       # Cumulative time (in ticks) in various power states
system.cpu.dtb_walker_cache.blocked_cycles::no_mshrs            0                       # number of cycles access was blocked
system.cpu.dtb_walker_cache.blocked_cycles::no_targets            0                       # number of cycles access was blocked
system.cpu.dtb_walker_cache.blocked::no_mshrs            0                       # number of cycles access was blocked
system.cpu.dtb_walker_cache.blocked::no_targets            0                       # number of cycles access was blocked
system.cpu.dtb_walker_cache.avg_blocked_cycles::no_mshrs          nan                       # average number of cycles each access was blocked
system.cpu.dtb_walker_cache.avg_blocked_cycles::no_targets          nan                       # average number of cycles each access was blocked
system.cpu.dtb_walker_cache.replacements            0                       # number of replacements
system.cpu.dtb_walker_cache.expired                 0                       # dead blocks evicted
system.cpu.dtb_walker_cache.power_state.pwrStateResidencyTicks::UNDEFINED   3987848500                       # Cumulative time (in ticks) in various power states
system.cpu.dtb_walker_cache.tags.tagsinuse            0                       # Cycle average of tags in use
system.cpu.dtb_walker_cache.tags.total_refs            0                       # Total number of references to valid blocks.
system.cpu.dtb_walker_cache.tags.sampled_refs            0                       # Sample count of references to valid blocks.
system.cpu.dtb_walker_cache.tags.avg_refs          nan                       # Average number of references to valid blocks.
system.cpu.dtb_walker_cache.tags.warmup_cycle            0                       # Cycle when the warmup percentage was hit.
system.cpu.dtb_walker_cache.tags.tag_accesses            0                       # Number of tag accesses
system.cpu.dtb_walker_cache.tags.data_accesses            0                       # Number of data accesses
system.cpu.dtb_walker_cache.tags.power_state.pwrStateResidencyTicks::UNDEFINED   3987848500                       # Cumulative time (in ticks) in various power states
system.cpu.fetch.icacheStallCycles              69438                       # Number of cycles fetch is stalled on an Icache miss
system.cpu.fetch.insts                       10245994                       # Number of instructions fetch has processed
system.cpu.fetch.branches                     1818498                       # Number of branches that fetch encountered
system.cpu.fetch.predictedBranches             916831                       # Number of branches that fetch has predicted taken
system.cpu.fetch.cycles                       7077937                       # Number of cycles fetch has run and was not squashing or blocked
system.cpu.fetch.squashCycles                   86236                       # Number of cycles fetch has spent squashing
system.cpu.fetch.tlbCycles                       5012                       # Number of cycles fetch has spent waiting for tlb
system.cpu.fetch.miscStallCycles                   20                       # Number of cycles fetch has spent waiting on interrupts,or bad addresses, or out of MSHRs
system.cpu.fetch.cacheLines                   3250022                       # Number of cache lines fetched
system.cpu.fetch.icacheSquashes                  8526                       # Number of outstanding Icache misses that were squashed
system.cpu.fetch.tlbSquashes                     3796                       # Number of outstanding ITLB misses that were squashed
system.cpu.fetch.SMTDist::samples             7784214                       # Number of Cycles each Thread Fetched
system.cpu.fetch.SMTDist::mean               0.378465                       # Number of Cycles each Thread Fetched
system.cpu.fetch.SMTDist::stdev              0.630523                       # Number of Cycles each Thread Fetched
system.cpu.fetch.SMTDist::underflows                0      0.00%      0.00% # Number of Cycles each Thread Fetched
system.cpu.fetch.SMTDist::-1                   631807      8.12%      8.12% # Number of Cycles each Thread Fetched
system.cpu.fetch.SMTDist::0                   3574544     45.92%     54.04% # Number of Cycles each Thread Fetched
system.cpu.fetch.SMTDist::1                   3577863     45.96%    100.00% # Number of Cycles each Thread Fetched
system.cpu.fetch.SMTDist::2                         0      0.00%    100.00% # Number of Cycles each Thread Fetched
system.cpu.fetch.SMTDist::overflows                 0      0.00%    100.00% # Number of Cycles each Thread Fetched
system.cpu.fetch.SMTDist::min_value                -1                       # Number of Cycles each Thread Fetched
system.cpu.fetch.SMTDist::max_value                 1                       # Number of Cycles each Thread Fetched
system.cpu.fetch.SMTDist::total               7784214                       # Number of Cycles each Thread Fetched
system.cpu.fetch.nisnDist::samples            7784214                       # Number of instructions fetched each cycle (Total)
system.cpu.fetch.nisnDist::mean              2.372125                       # Number of instructions fetched each cycle (Total)
system.cpu.fetch.nisnDist::stdev             2.872332                       # Number of instructions fetched each cycle (Total)
system.cpu.fetch.nisnDist::underflows               0      0.00%      0.00% # Number of instructions fetched each cycle (Total)
system.cpu.fetch.nisnDist::0                  3954943     50.81%     50.81% # Number of instructions fetched each cycle (Total)
system.cpu.fetch.nisnDist::1                   321843      4.13%     54.94% # Number of instructions fetched each cycle (Total)
system.cpu.fetch.nisnDist::2                   293778      3.77%     58.72% # Number of instructions fetched each cycle (Total)
system.cpu.fetch.nisnDist::3                   607789      7.81%     66.52% # Number of instructions fetched each cycle (Total)
system.cpu.fetch.nisnDist::4                   605135      7.77%     74.30% # Number of instructions fetched each cycle (Total)
system.cpu.fetch.nisnDist::5                   515029      6.62%     80.91% # Number of instructions fetched each cycle (Total)
system.cpu.fetch.nisnDist::6                   323796      4.16%     85.07% # Number of instructions fetched each cycle (Total)
system.cpu.fetch.nisnDist::7                   501309      6.44%     91.51% # Number of instructions fetched each cycle (Total)
system.cpu.fetch.nisnDist::8                   660592      8.49%    100.00% # Number of instructions fetched each cycle (Total)
system.cpu.fetch.nisnDist::overflows                0      0.00%    100.00% # Number of instructions fetched each cycle (Total)
system.cpu.fetch.nisnDist::min_value                0                       # Number of instructions fetched each cycle (Total)
system.cpu.fetch.nisnDist::max_value                8                       # Number of instructions fetched each cycle (Total)
system.cpu.fetch.nisnDist::total              7784214                       # Number of instructions fetched each cycle (Total)
system.cpu.fetch.branchRate                  0.228005                       # Number of branch fetches per cycle
system.cpu.fetch.rate                        1.284652                       # Number of inst fetches per cycle
system.cpu.icache.demand_hits::.cpu.inst      3224978                       # number of demand (read+write) hits
system.cpu.icache.demand_hits::total          3224978                       # number of demand (read+write) hits
system.cpu.icache.overall_hits::.cpu.inst      3224978                       # number of overall hits
system.cpu.icache.overall_hits::total         3224978                       # number of overall hits
system.cpu.icache.demand_misses::.cpu.inst        25043                       # number of demand (read+write) misses
system.cpu.icache.demand_misses::total          25043                       # number of demand (read+write) misses
system.cpu.icache.overall_misses::.cpu.inst        25043                       # number of overall misses
system.cpu.icache.overall_misses::total         25043                       # number of overall misses
system.cpu.icache.demand_miss_latency::.cpu.inst    845309500                       # number of demand (read+write) miss cycles
system.cpu.icache.demand_miss_latency::total    845309500                       # number of demand (read+write) miss cycles
system.cpu.icache.overall_miss_latency::.cpu.inst    845309500                       # number of overall miss cycles
system.cpu.icache.overall_miss_latency::total    845309500                       # number of overall miss cycles
system.cpu.icache.demand_accesses::.cpu.inst      3250021                       # number of demand (read+write) accesses
[...]
system.mem_ctrls1.dram.perBankWrBursts::6            0                       # Per bank write bursts
system.mem_ctrls1.dram.perBankWrBursts::7           38                       # Per bank write bursts
system.mem_ctrls1.dram.perBankWrBursts::8            6                       # Per bank write bursts
system.mem_ctrls1.dram.perBankWrBursts::9           33                       # Per bank write bursts
system.mem_ctrls1.dram.perBankWrBursts::10            0                       # Per bank write bursts
system.mem_ctrls1.dram.perBankWrBursts::11            3                       # Per bank write bursts
system.mem_ctrls1.dram.perBankWrBursts::12            0                       # Per bank write bursts
system.mem_ctrls1.dram.perBankWrBursts::13            0                       # Per bank write bursts
system.mem_ctrls1.dram.perBankWrBursts::14            0                       # Per bank write bursts
system.mem_ctrls1.dram.perBankWrBursts::15            0                       # Per bank write bursts
system.mem_ctrls1.dram.perBankWrBursts::16            0                       # Per bank write bursts
system.mem_ctrls1.dram.perBankWrBursts::17            0                       # Per bank write bursts
system.mem_ctrls1.dram.perBankWrBursts::18            0                       # Per bank write bursts
system.mem_ctrls1.dram.perBankWrBursts::19            7                       # Per bank write bursts
system.mem_ctrls1.dram.perBankWrBursts::20            1                       # Per bank write bursts
system.mem_ctrls1.dram.perBankWrBursts::21           13                       # Per bank write bursts
system.mem_ctrls1.dram.perBankWrBursts::22            0                       # Per bank write bursts
system.mem_ctrls1.dram.perBankWrBursts::23           26                       # Per bank write bursts
system.mem_ctrls1.dram.perBankWrBursts::24            7                       # Per bank write bursts
system.mem_ctrls1.dram.perBankWrBursts::25            6                       # Per bank write bursts
system.mem_ctrls1.dram.perBankWrBursts::26            0                       # Per bank write bursts
system.mem_ctrls1.dram.perBankWrBursts::27            1                       # Per bank write bursts
system.mem_ctrls1.dram.perBankWrBursts::28            0                       # Per bank write bursts
system.mem_ctrls1.dram.perBankWrBursts::29            0                       # Per bank write bursts
system.mem_ctrls1.dram.perBankWrBursts::30            0                       # Per bank write bursts
system.mem_ctrls1.dram.perBankWrBursts::31            0                       # Per bank write bursts
system.mem_ctrls1.dram.totQLat              270411316                       # Total ticks spent queuing
system.mem_ctrls1.dram.totBusLat             82077156                       # Total ticks spent in databus transfers
system.mem_ctrls1.dram.totMemAccLat         701291752                       # Total ticks spent from burst creation until serviced by the DRAM
system.mem_ctrls1.dram.avgQLat               10977.60                       # Average queueing delay per DRAM burst
system.mem_ctrls1.dram.avgBusLat              3332.00                       # Average bus latency per DRAM burst
system.mem_ctrls1.dram.avgMemAccLat          28469.60                       # Average memory access latency per DRAM burst
system.mem_ctrls1.dram.readRowHits              19277                       # Number of row buffer hits during reads
system.mem_ctrls1.dram.writeRowHits               113                       # Number of row buffer hits during writes
system.mem_ctrls1.dram.readRowHitRate           78.26                       # Row buffer hit rate for reads
system.mem_ctrls1.dram.writeRowHitRate          64.57                       # Row buffer hit rate for writes
system.mem_ctrls1.dram.bytesPerActivate::samples         5414                       # Bytes accessed per row activation
system.mem_ctrls1.dram.bytesPerActivate::mean   293.047654                       # Bytes accessed per row activation
system.mem_ctrls1.dram.bytesPerActivate::gmean   188.050552                       # Bytes accessed per row activation
system.mem_ctrls1.dram.bytesPerActivate::stdev   307.599153                       # Bytes accessed per row activation
system.mem_ctrls1.dram.bytesPerActivate::0-127         1226     22.64%     22.64% # Bytes accessed per row activation
system.mem_ctrls1.dram.bytesPerActivate::128-255         2194     40.52%     63.17% # Bytes accessed per row activation
system.mem_ctrls1.dram.bytesPerActivate::256-383          607     11.21%     74.38% # Bytes accessed per row activation
system.mem_ctrls1.dram.bytesPerActivate::384-511          327      6.04%     80.42% # Bytes accessed per row activation
system.mem_ctrls1.dram.bytesPerActivate::512-639          185      3.42%     83.84% # Bytes accessed per row activation
system.mem_ctrls1.dram.bytesPerActivate::640-767          154      2.84%     86.68% # Bytes accessed per row activation
system.mem_ctrls1.dram.bytesPerActivate::768-895           63      1.16%     87.85% # Bytes accessed per row activation
system.mem_ctrls1.dram.bytesPerActivate::896-1023           53      0.98%     88.83% # Bytes accessed per row activation
system.mem_ctrls1.dram.bytesPerActivate::1024-1151          605     11.17%    100.00% # Bytes accessed per row activation
system.mem_ctrls1.dram.bytesPerActivate::total         5414                       # Bytes accessed per row activation
system.mem_ctrls1.dram.bytesRead              1576512                       # Total number of bytes read from DRAM
system.mem_ctrls1.dram.bytesWritten             11200                       # Total number of bytes written to DRAM
system.mem_ctrls1.dram.avgRdBW             395.328960                       # Average DRAM read bandwidth in MiBytes/s
system.mem_ctrls1.dram.avgWrBW               2.808532                       # Average DRAM write bandwidth in MiBytes/s
system.mem_ctrls1.dram.peakBW                19207.00                       # Theoretical peak bandwidth in MiByte/s
system.mem_ctrls1.dram.busUtil                   2.07                       # Data bus utilization in percentage
system.mem_ctrls1.dram.busUtilRead               2.06                       # Data bus utilization in percentage for reads
system.mem_ctrls1.dram.busUtilWrite              0.01                       # Data bus utilization in percentage for writes
system.mem_ctrls1.dram.pageHitRate              78.16                       # Row buffer hit rate, read and write combined
system.mem_ctrls1.dram.power_state.pwrStateResidencyTicks::UNDEFINED   3987848500                       # Cumulative time (in ticks) in various power states
system.mem_ctrls1.dram.rank0.actEnergy   9374968.512000                       # Energy for activate commands per rank (pJ)
system.mem_ctrls1.dram.rank0.preEnergy   12455607.763200                       # Energy for precharge commands per rank (pJ)
system.mem_ctrls1.dram.rank0.readEnergy  58190186.611200                       # Energy for read commands per rank (pJ)
system.mem_ctrls1.dram.rank0.writeEnergy 428468.544000                       # Energy for write commands per rank (pJ)
system.mem_ctrls1.dram.rank0.refreshEnergy 709313345.126403                       # Energy for refresh commands per rank (pJ)
system.mem_ctrls1.dram.rank0.actBackEnergy 2740249725.494397                       # Energy for active background per rank (pJ)
system.mem_ctrls1.dram.rank0.preBackEnergy 497765358.182398                       # Energy for precharge background per rank (pJ)
system.mem_ctrls1.dram.rank0.actPowerDownEnergy            0                       # Energy for active power-down per rank (pJ)
system.mem_ctrls1.dram.rank0.prePowerDownEnergy            0                       # Energy for precharge power-down per rank (pJ)
system.mem_ctrls1.dram.rank0.selfRefreshEnergy            0                       # Energy for self refresh per rank (pJ)
system.mem_ctrls1.dram.rank0.totalEnergy 4027777660.233599                       # Total energy per rank (pJ)
system.mem_ctrls1.dram.rank0.averagePower  1010.012707                       # Core power per rank (mW)
system.mem_ctrls1.dram.rank0.totalIdleTime            0                       # Total Idle time Per DRAM Rank
system.mem_ctrls1.dram.rank0.pwrStateTime::IDLE    747881724                       # Time in different power states
system.mem_ctrls1.dram.rank0.pwrStateTime::REF    179200000                       # Time in different power states
system.mem_ctrls1.dram.rank0.pwrStateTime::SREF            0                       # Time in different power states
system.mem_ctrls1.dram.rank0.pwrStateTime::PRE_PDN            0                       # Time in different power states
system.mem_ctrls1.dram.rank0.pwrStateTime::ACT   3060766776                       # Time in different power states
system.mem_ctrls1.dram.rank0.pwrStateTime::ACT_PDN            0                       # Time in different power states
system.mem_ctrls1.dram.rank1.actEnergy   7522429.824000                       # Energy for activate commands per rank (pJ)
system.mem_ctrls1.dram.rank1.preEnergy   9992681.328000                       # Energy for precharge commands per rank (pJ)
system.mem_ctrls1.dram.rank1.readEnergy  45424015.123200                       # Energy for read commands per rank (pJ)
system.mem_ctrls1.dram.rank1.writeEnergy 229268.256000                       # Energy for write commands per rank (pJ)
system.mem_ctrls1.dram.rank1.refreshEnergy 709313345.126403                       # Energy for refresh commands per rank (pJ)
system.mem_ctrls1.dram.rank1.actBackEnergy 2598704242.343996                       # Energy for active background per rank (pJ)
system.mem_ctrls1.dram.rank1.preBackEnergy 606523469.529599                       # Energy for precharge background per rank (pJ)
system.mem_ctrls1.dram.rank1.actPowerDownEnergy            0                       # Energy for active power-down per rank (pJ)
system.mem_ctrls1.dram.rank1.prePowerDownEnergy            0                       # Energy for precharge power-down per rank (pJ)
system.mem_ctrls1.dram.rank1.selfRefreshEnergy            0                       # Energy for self refresh per rank (pJ)
system.mem_ctrls1.dram.rank1.totalEnergy 3977709451.531203                       # Total energy per rank (pJ)
system.mem_ctrls1.dram.rank1.averagePower   997.457514                       # Core power per rank (mW)
system.mem_ctrls1.dram.rank1.totalIdleTime            0                       # Total Idle time Per DRAM Rank
system.mem_ctrls1.dram.rank1.pwrStateTime::IDLE    914821653                       # Time in different power states
system.mem_ctrls1.dram.rank1.pwrStateTime::REF    179200000                       # Time in different power states
system.mem_ctrls1.dram.rank1.pwrStateTime::SREF            0                       # Time in different power states
system.mem_ctrls1.dram.rank1.pwrStateTime::PRE_PDN            0                       # Time in different power states
system.mem_ctrls1.dram.rank1.pwrStateTime::ACT   2893826847                       # Time in different power states
system.mem_ctrls1.dram.rank1.pwrStateTime::ACT_PDN            0                       # Time in different power states
system.mem_ctrls1.power_state.pwrStateResidencyTicks::UNDEFINED   3987848500                       # Cumulative time (in ticks) in various power states
system.membus.trans_dist::ReadResp              39266                       # Transaction distribution
system.membus.trans_dist::WritebackDirty          477                       # Transaction distribution
system.membus.trans_dist::CleanEvict             1463                       # Transaction distribution
system.membus.trans_dist::ReadExReq             10124                       # Transaction distribution
system.membus.trans_dist::ReadExResp            10124                       # Transaction distribution
system.membus.trans_dist::ReadSharedReq         39266                       # Transaction distribution
system.membus.pkt_count_system.l2.mem_side_port::system.mem_ctrls0.port        50417                       # Packet count per connected requestor and responder (bytes)
system.membus.pkt_count_system.l2.mem_side_port::system.mem_ctrls1.port        50303                       # Packet count per connected requestor and responder (bytes)
system.membus.pkt_count_system.l2.mem_side_port::total       100720                       # Packet count per connected requestor and responder (bytes)
system.membus.pkt_count::total                 100720                       # Packet count per connected requestor and responder (bytes)
system.membus.pkt_size_system.l2.mem_side_port::system.mem_ctrls0.port      1598080                       # Cumulative packet size per connected requestor and responder (bytes)
system.membus.pkt_size_system.l2.mem_side_port::system.mem_ctrls1.port      1593408                       # Cumulative packet size per connected requestor and responder (bytes)
system.membus.pkt_size_system.l2.mem_side_port::total      3191488                       # Cumulative packet size per connected requestor and responder (bytes)
system.membus.pkt_size::total                 3191488                       # Cumulative packet size per connected requestor and responder (bytes)
system.membus.snoops                                0                       # Total snoops (count)
system.membus.snoopTraffic                          0                       # Total snoop traffic (bytes)
system.membus.snoop_fanout::samples             49390                       # Request fanout histogram
system.membus.snoop_fanout::mean                    0                       # Request fanout histogram
system.membus.snoop_fanout::stdev                   0                       # Request fanout histogram
system.membus.snoop_fanout::underflows              0      0.00%      0.00% # Request fanout histogram
system.membus.snoop_fanout::0                   49390    100.00%    100.00% # Request fanout histogram
system.membus.snoop_fanout::1                       0      0.00%    100.00% # Request fanout histogram
system.membus.snoop_fanout::overflows               0      0.00%    100.00% # Request fanout histogram
system.membus.snoop_fanout::min_value               0                       # Request fanout histogram
system.membus.snoop_fanout::max_value               0                       # Request fanout histogram
system.membus.snoop_fanout::total               49390                       # Request fanout histogram
system.membus.power_state.pwrStateResidencyTicks::UNDEFINED   3987848500                       # Cumulative time (in ticks) in various power states
system.membus.reqLayer4.occupancy            32686416                       # Layer occupancy (ticks)
system.membus.reqLayer4.utilization               0.8                       # Layer utilization (%)
system.membus.reqLayer5.occupancy            32474902                       # Layer occupancy (ticks)
system.membus.reqLayer5.utilization               0.8                       # Layer utilization (%)
system.membus.respLayer1.occupancy          262402564                       # Layer occupancy (ticks)
system.membus.respLayer1.utilization              6.6                       # Layer utilization (%)
system.tol2bus.trans_dist::ReadResp            103329                       # Transaction distribution
system.tol2bus.trans_dist::WritebackDirty        45802                       # Transaction distribution
system.tol2bus.trans_dist::WritebackClean        76618                       # Transaction distribution
system.tol2bus.trans_dist::CleanEvict            1496                       # Transaction distribution
system.tol2bus.trans_dist::HardPFReq              449                       # Transaction distribution
system.tol2bus.trans_dist::UpgradeReq               9                       # Transaction distribution
system.tol2bus.trans_dist::UpgradeResp              9                       # Transaction distribution
system.tol2bus.trans_dist::ReadExReq            19357                       # Transaction distribution
system.tol2bus.trans_dist::ReadExResp           19357                       # Transaction distribution
system.tol2bus.trans_dist::ReadCleanReq         22169                       # Transaction distribution
system.tol2bus.trans_dist::ReadSharedReq        81160                       # Transaction distribution
system.tol2bus.pkt_count_system.cpu.icache.mem_side_port::system.l2.cpu_side_port        65972                       # Packet count per connected requestor and responder (bytes)
system.tol2bus.pkt_count_system.cpu.dcache.mem_side_port::system.l2.cpu_side_port       301347                       # Packet count per connected requestor and responder (bytes)
system.tol2bus.pkt_count::total                367319                       # Packet count per connected requestor and responder (bytes)
system.tol2bus.pkt_size_system.cpu.icache.mem_side_port::system.l2.cpu_side_port      2803392                       # Cumulative packet size per connected requestor and responder (bytes)
system.tol2bus.pkt_size_system.cpu.dcache.mem_side_port::system.l2.cpu_side_port     12851968                       # Cumulative packet size per connected requestor and responder (bytes)
system.tol2bus.pkt_size::total               15655360                       # Cumulative packet size per connected requestor and responder (bytes)
system.tol2bus.snoops                            2436                       # Total snoops (count)
system.tol2bus.snoopTraffic                     31424                       # Total snoop traffic (bytes)
system.tol2bus.snoop_fanout::samples           125117                       # Request fanout histogram
system.tol2bus.snoop_fanout::mean            0.001295                       # Request fanout histogram
system.tol2bus.snoop_fanout::stdev           0.035960                       # Request fanout histogram
system.tol2bus.snoop_fanout::underflows             0      0.00%      0.00% # Request fanout histogram
system.tol2bus.snoop_fanout::0                 124955     99.87%     99.87% # Request fanout histogram
system.tol2bus.snoop_fanout::1                    162      0.13%    100.00% # Request fanout histogram
system.tol2bus.snoop_fanout::2                      0      0.00%    100.00% # Request fanout histogram
system.tol2bus.snoop_fanout::3                      0      0.00%    100.00% # Request fanout histogram
system.tol2bus.snoop_fanout::4                      0      0.00%    100.00% # Request fanout histogram
system.tol2bus.snoop_fanout::overflows              0      0.00%    100.00% # Request fanout histogram
system.tol2bus.snoop_fanout::min_value              0                       # Request fanout histogram
system.tol2bus.snoop_fanout::max_value              1                       # Request fanout histogram
system.tol2bus.snoop_fanout::total             125117                       # Request fanout histogram
system.tol2bus.power_state.pwrStateResidencyTicks::UNDEFINED   3987848500                       # Cumulative time (in ticks) in various power states
system.tol2bus.reqLayer0.occupancy          244262000                       # Layer occupancy (ticks)
system.tol2bus.reqLayer0.utilization              6.1                       # Layer utilization (%)
system.tol2bus.respLayer0.occupancy          33323859                       # Layer occupancy (ticks)
system.tol2bus.respLayer0.utilization             0.8                       # Layer utilization (%)
system.tol2bus.respLayer1.occupancy         150800459                       # Layer occupancy (ticks)
system.tol2bus.respLayer1.utilization             3.8                       # Layer utilization (%)
system.voltage_domain.voltage                       1                       # Voltage in Volts

---------- End Simulation Statistics   ----------
