
---------- Begin Simulation Statistics ----------
final_tick                                  595007000                       # Number of ticks from beginning of simulation (restored from checkpoints and never reset)
host_mem_usage                               67385328                       # Number of bytes of host memory used
host_seconds                                     5.09                       # Real time elapsed on the host
host_tick_rate                              116823007                       # Simulator tick rate (ticks/s)
sim_freq                                 1000000000000                       # Frequency of simulated ticks
sim_seconds                                  0.000595                       # Number of seconds simulated
sim_ticks                                   595007000                       # Number of ticks simulated
system.cpu.cc_regfile_reads                    930144                       # number of cc regfile reads
system.cpu.cc_regfile_writes                   581636                       # number of cc regfile writes
system.cpu.committedInsts::0                   332566                       # Number of Instructions Simulated
system.cpu.committedInsts::1                   332566                       # Number of Instructions Simulated
system.cpu.committedInsts::total               665132                       # Number of Instructions Simulated
system.cpu.committedOps::0                     628046                       # Number of Ops (including micro ops) Simulated
system.cpu.committedOps::1                     628046                       # Number of Ops (including micro ops) Simulated
system.cpu.committedOps::total                1256092                       # Number of Ops (including micro ops) Simulated
system.cpu.cpi::0                            3.578282                       # CPI: Cycles Per Instruction
system.cpu.cpi::1                            3.578282                       # CPI: Cycles Per Instruction
system.cpu.cpi_total                         1.789141                       # CPI: Total CPI of All Threads
system.cpu.fp_regfile_reads                    102326                       # number of floating regfile reads
system.cpu.fp_regfile_writes                    56554                       # number of floating regfile writes
system.cpu.idleCycles                           85630                       # Total number of cycles that the CPU has spent unscheduled due to idling
system.cpu.iew.branchMispredicts                22348                       # Number of branch mispredicts detected at execute
system.cpu.iew.exec_branches::0                 86196                       # Number of branches executed
system.cpu.iew.exec_branches::1                 85859                       # Number of branches executed
system.cpu.iew.exec_branches::total            172055                       # Number of branches executed
system.cpu.iew.exec_nop::0                          0                       # number of nop insts executed
system.cpu.iew.exec_nop::1                          0                       # number of nop insts executed
system.cpu.iew.exec_nop::total                      0                       # number of nop insts executed
system.cpu.iew.exec_rate                     1.407278                       # Inst execution rate
system.cpu.iew.exec_refs::0                    160832                       # number of memory reference insts executed
system.cpu.iew.exec_refs::1                    160448                       # number of memory reference insts executed
system.cpu.iew.exec_refs::total                321280                       # number of memory reference insts executed
system.cpu.iew.exec_stores::0                   42065                       # Number of stores executed
system.cpu.iew.exec_stores::1                   41928                       # Number of stores executed
system.cpu.iew.exec_stores::total               83993                       # Number of stores executed
system.cpu.iew.exec_swp::0                          0                       # number of swp insts executed
system.cpu.iew.exec_swp::1                          0                       # number of swp insts executed
system.cpu.iew.exec_swp::total                      0                       # number of swp insts executed
system.cpu.iew.iewBlockCycles                  224626                       # Number of cycles IEW is blocking
system.cpu.iew.iewDispLoadInsts                260705                       # Number of dispatched load instructions
system.cpu.iew.iewDispNonSpecInsts                621                       # Number of dispatched non-speculative instructions
system.cpu.iew.iewDispSquashedInsts                 0                       # Number of squashed instructions skipped by dispatch
system.cpu.iew.iewDispStoreInsts                98736                       # Number of dispatched store instructions
system.cpu.iew.iewDispatchedInsts             1959245                       # Number of instructions dispatched to IQ
system.cpu.iew.iewExecLoadInsts::0             118767                       # Number of load instructions executed
system.cpu.iew.iewExecLoadInsts::1             118520                       # Number of load instructions executed
system.cpu.iew.iewExecLoadInsts::total         237287                       # Number of load instructions executed
system.cpu.iew.iewExecSquashedInsts             28199                       # Number of squashed instructions skipped in execute
system.cpu.iew.iewExecutedInsts               1674682                       # Number of executed instructions
system.cpu.iew.iewIQFullEvents                   1511                       # Number of times the IQ has become full, causing a stall
system.cpu.iew.iewIdleCycles                        0                       # Number of cycles IEW is idle
system.cpu.iew.iewLSQFullEvents                  7291                       # Number of times the LSQ has become full, causing a stall
system.cpu.iew.iewSquashCycles                  20199                       # Number of cycles IEW is squashing
system.cpu.iew.iewUnblockCycles                  9580                       # Number of cycles IEW is unblocking
system.cpu.iew.memOrderViolationEvents             95                       # Number of memory order violations
system.cpu.iew.predictedNotTakenIncorrect        17002                       # Number of branches that were predicted not taken incorrectly
system.cpu.iew.predictedTakenIncorrect           5346                       # Number of branches that were predicted taken incorrectly
system.cpu.iew.wb_consumers::0                1060146                       # num instructions consuming a value
system.cpu.iew.wb_consumers::1                1054995                       # num instructions consuming a value
system.cpu.iew.wb_consumers::total            2115141                       # num instructions consuming a value
system.cpu.iew.wb_count::0                     827221                       # cumulative count of insts written-back
system.cpu.iew.wb_count::1                     823771                       # cumulative count of insts written-back
system.cpu.iew.wb_count::total                1650992                       # cumulative count of insts written-back
system.cpu.iew.wb_fanout::0                  0.587077                       # average fanout of values written-back
system.cpu.iew.wb_fanout::1                  0.587166                       # average fanout of values written-back
system.cpu.iew.wb_fanout::total              0.587121                       # average fanout of values written-back
system.cpu.iew.wb_producers::0                 622387                       # num instructions producing a value
system.cpu.iew.wb_producers::1                 619457                       # num instructions producing a value
system.cpu.iew.wb_producers::total            1241844                       # num instructions producing a value
system.cpu.iew.wb_rate::0                    0.695135                       # insts written-back per cycle
system.cpu.iew.wb_rate::1                    0.692236                       # insts written-back per cycle
system.cpu.iew.wb_rate::total                1.387371                       # insts written-back per cycle
system.cpu.iew.wb_sent::0                      828402                       # cumulative count of insts sent to commit
system.cpu.iew.wb_sent::1                      824966                       # cumulative count of insts sent to commit
system.cpu.iew.wb_sent::total                 1653368                       # cumulative count of insts sent to commit
system.cpu.int_regfile_reads                  2429888                       # number of integer regfile reads
system.cpu.int_regfile_writes                 1333046                       # number of integer regfile writes
system.cpu.ipc::0                            0.279464                       # IPC: Instructions Per Cycle
system.cpu.ipc::1                            0.279464                       # IPC: Instructions Per Cycle
system.cpu.ipc_total                         0.558927                       # IPC: Total IPC of All Threads
system.cpu.iq.FU_type_0::No_OpClass             13086      1.52%      1.52% # Type of FU issued
system.cpu.iq.FU_type_0::IntAlu                650705     75.45%     76.96% # Type of FU issued
system.cpu.iq.FU_type_0::IntMult                   78      0.01%     76.97% # Type of FU issued
system.cpu.iq.FU_type_0::IntDiv                  2871      0.33%     77.30% # Type of FU issued
system.cpu.iq.FU_type_0::FloatAdd                2561      0.30%     77.60% # Type of FU issued
system.cpu.iq.FU_type_0::FloatCmp                   0      0.00%     77.60% # Type of FU issued
system.cpu.iq.FU_type_0::FloatCvt                 565      0.07%     77.67% # Type of FU issued
system.cpu.iq.FU_type_0::FloatMult                  0      0.00%     77.67% # Type of FU issued
system.cpu.iq.FU_type_0::FloatMultAcc               0      0.00%     77.67% # Type of FU issued
system.cpu.iq.FU_type_0::FloatDiv                   0      0.00%     77.67% # Type of FU issued
system.cpu.iq.FU_type_0::FloatMisc                  0      0.00%     77.67% # Type of FU issued
system.cpu.iq.FU_type_0::FloatSqrt                  0      0.00%     77.67% # Type of FU issued
system.cpu.iq.FU_type_0::SimdAdd                 2312      0.27%     77.94% # Type of FU issued
system.cpu.iq.FU_type_0::SimdAddAcc                 0      0.00%     77.94% # Type of FU issued
system.cpu.iq.FU_type_0::SimdAlu                 5668      0.66%     78.59% # Type of FU issued
system.cpu.iq.FU_type_0::SimdCmp                    6      0.00%     78.59% # Type of FU issued
system.cpu.iq.FU_type_0::SimdCvt                 5791      0.67%     79.26% # Type of FU issued
system.cpu.iq.FU_type_0::SimdMisc                3764      0.44%     79.70% # Type of FU issued
system.cpu.iq.FU_type_0::SimdMult                   0      0.00%     79.70% # Type of FU issued
system.cpu.iq.FU_type_0::SimdMultAcc                0      0.00%     79.70% # Type of FU issued
system.cpu.iq.FU_type_0::SimdShift                974      0.11%     79.81% # Type of FU issued
system.cpu.iq.FU_type_0::SimdShiftAcc               0      0.00%     79.81% # Type of FU issued
system.cpu.iq.FU_type_0::SimdDiv                    0      0.00%     79.81% # Type of FU issued
system.cpu.iq.FU_type_0::SimdSqrt                   0      0.00%     79.81% # Type of FU issued
system.cpu.iq.FU_type_0::SimdFloatAdd               0      0.00%     79.81% # Type of FU issued
system.cpu.iq.FU_type_0::SimdFloatAlu               0      0.00%     79.81% # Type of FU issued
system.cpu.iq.FU_type_0::SimdFloatCmp               0      0.00%     79.81% # Type of FU issued
system.cpu.iq.FU_type_0::SimdFloatCvt               0      0.00%     79.81% # Type of FU issued
system.cpu.iq.FU_type_0::SimdFloatDiv               0      0.00%     79.81% # Type of FU issued
system.cpu.iq.FU_type_0::SimdFloatMisc              0      0.00%     79.81% # Type of FU issued
system.cpu.iq.FU_type_0::SimdFloatMult              0      0.00%     79.81% # Type of FU issued
system.cpu.iq.FU_type_0::SimdFloatMultAcc            0      0.00%     79.81% # Type of FU issued
system.cpu.iq.FU_type_0::SimdFloatSqrt              0      0.00%     79.81% # Type of FU issued
system.cpu.iq.FU_type_0::SimdReduceAdd              0      0.00%     79.81% # Type of FU issued
system.cpu.iq.FU_type_0::SimdReduceAlu              0      0.00%     79.81% # Type of FU issued
system.cpu.iq.FU_type_0::SimdReduceCmp              0      0.00%     79.81% # Type of FU issued
system.cpu.iq.FU_type_0::SimdFloatReduceAdd            0      0.00%     79.81% # Type of FU issued
system.cpu.iq.FU_type_0::SimdFloatReduceCmp            0      0.00%     79.81% # Type of FU issued
system.cpu.iq.FU_type_0::SimdAes                    0      0.00%     79.81% # Type of FU issued
system.cpu.iq.FU_type_0::SimdAesMix                 0      0.00%     79.81% # Type of FU issued
system.cpu.iq.FU_type_0::SimdSha1Hash               0      0.00%     79.81% # Type of FU issued
system.cpu.iq.FU_type_0::SimdSha1Hash2              0      0.00%     79.81% # Type of FU issued
system.cpu.iq.FU_type_0::SimdSha256Hash             0      0.00%     79.81% # Type of FU issued
system.cpu.iq.FU_type_0::SimdSha256Hash2            0      0.00%     79.81% # Type of FU issued
system.cpu.iq.FU_type_0::SimdShaSigma2              0      0.00%     79.81% # Type of FU issued
system.cpu.iq.FU_type_0::SimdShaSigma3              0      0.00%     79.81% # Type of FU issued
system.cpu.iq.FU_type_0::SimdPredAlu                0      0.00%     79.81% # Type of FU issued
system.cpu.iq.FU_type_0::MemRead               118635     13.76%     93.57% # Type of FU issued
system.cpu.iq.FU_type_0::MemWrite               36508      4.23%     97.80% # Type of FU issued
system.cpu.iq.FU_type_0::FloatMemRead           12023      1.39%     99.20% # Type of FU issued
system.cpu.iq.FU_type_0::FloatMemWrite           6934      0.80%    100.00% # Type of FU issued
system.cpu.iq.FU_type_0::IprAccess                  0      0.00%    100.00% # Type of FU issued
system.cpu.iq.FU_type_0::InstPrefetch               0      0.00%    100.00% # Type of FU issued
system.cpu.iq.FU_type_0::total                 862481                       # Type of FU issued
system.cpu.iq.FU_type_1::No_OpClass             13035      1.52%      1.52% # Type of FU issued
system.cpu.iq.FU_type_1::IntAlu                648085     75.42%     76.93% # Type of FU issued
system.cpu.iq.FU_type_1::IntMult                   71      0.01%     76.94% # Type of FU issued
system.cpu.iq.FU_type_1::IntDiv                  2866      0.33%     77.27% # Type of FU issued
system.cpu.iq.FU_type_1::FloatAdd                2523      0.29%     77.57% # Type of FU issued
system.cpu.iq.FU_type_1::FloatCmp                   0      0.00%     77.57% # Type of FU issued
system.cpu.iq.FU_type_1::FloatCvt                 554      0.06%     77.63% # Type of FU issued
system.cpu.iq.FU_type_1::FloatMult                  0      0.00%     77.63% # Type of FU issued
system.cpu.iq.FU_type_1::FloatMultAcc               0      0.00%     77.63% # Type of FU issued
system.cpu.iq.FU_type_1::FloatDiv                   0      0.00%     77.63% # Type of FU issued
system.cpu.iq.FU_type_1::FloatMisc                  0      0.00%     77.63% # Type of FU issued
system.cpu.iq.FU_type_1::FloatSqrt                  0      0.00%     77.63% # Type of FU issued
system.cpu.iq.FU_type_1::SimdAdd                 2294      0.27%     77.90% # Type of FU issued
system.cpu.iq.FU_type_1::SimdAddAcc                 0      0.00%     77.90% # Type of FU issued
system.cpu.iq.FU_type_1::SimdAlu                 5559      0.65%     78.55% # Type of FU issued
system.cpu.iq.FU_type_1::SimdCmp                    6      0.00%     78.55% # Type of FU issued
system.cpu.iq.FU_type_1::SimdCvt                 5666      0.66%     79.21% # Type of FU issued
system.cpu.iq.FU_type_1::SimdMisc                3775      0.44%     79.64% # Type of FU issued
system.cpu.iq.FU_type_1::SimdMult                   0      0.00%     79.64% # Type of FU issued
system.cpu.iq.FU_type_1::SimdMultAcc                0      0.00%     79.64% # Type of FU issued
system.cpu.iq.FU_type_1::SimdShift                958      0.11%     79.76% # Type of FU issued
system.cpu.iq.FU_type_1::SimdShiftAcc               0      0.00%     79.76% # Type of FU issued
system.cpu.iq.FU_type_1::SimdDiv                    0      0.00%     79.76% # Type of FU issued
system.cpu.iq.FU_type_1::SimdSqrt                   0      0.00%     79.76% # Type of FU issued
system.cpu.iq.FU_type_1::SimdFloatAdd               0      0.00%     79.76% # Type of FU issued
system.cpu.iq.FU_type_1::SimdFloatAlu               0      0.00%     79.76% # Type of FU issued
system.cpu.iq.FU_type_1::SimdFloatCmp               0      0.00%     79.76% # Type of FU issued
system.cpu.iq.FU_type_1::SimdFloatCvt               0      0.00%     79.76% # Type of FU issued
system.cpu.iq.FU_type_1::SimdFloatDiv               0      0.00%     79.76% # Type of FU issued
system.cpu.iq.FU_type_1::SimdFloatMisc              0      0.00%     79.76% # Type of FU issued
system.cpu.iq.FU_type_1::SimdFloatMult              0      0.00%     79.76% # Type of FU issued
system.cpu.iq.FU_type_1::SimdFloatMultAcc            0      0.00%     79.76% # Type of FU issued
system.cpu.iq.FU_type_1::SimdFloatSqrt              0      0.00%     79.76% # Type of FU issued
system.cpu.iq.FU_type_1::SimdReduceAdd              0      0.00%     79.76% # Type of FU issued
system.cpu.iq.FU_type_1::SimdReduceAlu              0      0.00%     79.76% # Type of FU issued
system.cpu.iq.FU_type_1::SimdReduceCmp              0      0.00%     79.76% # Type of FU issued
system.cpu.iq.FU_type_1::SimdFloatReduceAdd            0      0.00%     79.76% # Type of FU issued
system.cpu.iq.FU_type_1::SimdFloatReduceCmp            0      0.00%     79.76% # Type of FU issued
system.cpu.iq.FU_type_1::SimdAes                    0      0.00%     79.76% # Type of FU issued
system.cpu.iq.FU_type_1::SimdAesMix                 0      0.00%     79.76% # Type of FU issued
system.cpu.iq.FU_type_1::SimdSha1Hash               0      0.00%     79.76% # Type of FU issued
system.cpu.iq.FU_type_1::SimdSha1Hash2              0      0.00%     79.76% # Type of FU issued
system.cpu.iq.FU_type_1::SimdSha256Hash             0      0.00%     79.76% # Type of FU issued
system.cpu.iq.FU_type_1::SimdSha256Hash2            0      0.00%     79.76% # Type of FU issued
system.cpu.iq.FU_type_1::SimdShaSigma2              0      0.00%     79.76% # Type of FU issued
system.cpu.iq.FU_type_1::SimdShaSigma3              0      0.00%     79.76% # Type of FU issued
system.cpu.iq.FU_type_1::SimdPredAlu                0      0.00%     79.76% # Type of FU issued
system.cpu.iq.FU_type_1::MemRead               118782     13.82%     93.58% # Type of FU issued
system.cpu.iq.FU_type_1::MemWrite               36429      4.24%     97.82% # Type of FU issued
system.cpu.iq.FU_type_1::FloatMemRead           11847      1.38%     99.20% # Type of FU issued
system.cpu.iq.FU_type_1::FloatMemWrite           6908      0.80%    100.00% # Type of FU issued
system.cpu.iq.FU_type_1::IprAccess                  0      0.00%    100.00% # Type of FU issued
system.cpu.iq.FU_type_1::InstPrefetch               0      0.00%    100.00% # Type of FU issued
system.cpu.iq.FU_type_1::total                 859358                       # Type of FU issued
system.cpu.iq.FU_type::total                  1721839      0.00%      0.00% # Type of FU issued
system.cpu.iq.fp_alu_accesses                  145739                       # Number of floating point alu accesses
system.cpu.iq.fp_inst_queue_reads              231963                       # Number of floating instruction queue reads
system.cpu.iq.fp_inst_queue_wakeup_accesses        75790                       # Number of floating instruction queue wakeup accesses
system.cpu.iq.fp_inst_queue_writes             151766                       # Number of floating instruction queue writes
system.cpu.iq.fu_busy_cnt::0                   481500                       # FU busy when requested
system.cpu.iq.fu_busy_cnt::1                   483239                       # FU busy when requested
system.cpu.iq.fu_busy_cnt::total               964739                       # FU busy when requested
system.cpu.iq.fu_busy_rate::0                0.279643                       # FU busy rate (busy events/executed inst)
system.cpu.iq.fu_busy_rate::1                0.280653                       # FU busy rate (busy events/executed inst)
system.cpu.iq.fu_busy_rate::total            0.560296                       # FU busy rate (busy events/executed inst)
system.cpu.iq.fu_full::No_OpClass                   0      0.00%      0.00% # attempts to use FU when none available
system.cpu.iq.fu_full::IntAlu                  552060     57.22%     57.22% # attempts to use FU when none available
system.cpu.iq.fu_full::IntMult                     55      0.01%     57.23% # attempts to use FU when none available
system.cpu.iq.fu_full::IntDiv                   26517      2.75%     59.98% # attempts to use FU when none available
system.cpu.iq.fu_full::FloatAdd                  3946      0.41%     60.39% # attempts to use FU when none available
system.cpu.iq.fu_full::FloatCmp                     0      0.00%     60.39% # attempts to use FU when none available
system.cpu.iq.fu_full::FloatCvt                   730      0.08%     60.46% # attempts to use FU when none available
system.cpu.iq.fu_full::FloatMult                    0      0.00%     60.46% # attempts to use FU when none available
system.cpu.iq.fu_full::FloatMultAcc                 0      0.00%     60.46% # attempts to use FU when none available
system.cpu.iq.fu_full::FloatDiv                     0      0.00%     60.46% # attempts to use FU when none available
system.cpu.iq.fu_full::FloatMisc                    0      0.00%     60.46% # attempts to use FU when none available
system.cpu.iq.fu_full::FloatSqrt                    0      0.00%     60.46% # attempts to use FU when none available
system.cpu.iq.fu_full::SimdAdd                   3979      0.41%     60.88% # attempts to use FU when none available
system.cpu.iq.fu_full::SimdAddAcc                   0      0.00%     60.88% # attempts to use FU when none available
system.cpu.iq.fu_full::SimdAlu                   6383      0.66%     61.54% # attempts to use FU when none available
system.cpu.iq.fu_full::SimdCmp                      4      0.00%     61.54% # attempts to use FU when none available
system.cpu.iq.fu_full::SimdCvt                   8156      0.85%     62.38% # attempts to use FU when none available
system.cpu.iq.fu_full::SimdMisc                  6433      0.67%     63.05% # attempts to use FU when none available
system.cpu.iq.fu_full::SimdMult                     0      0.00%     63.05% # attempts to use FU when none available
system.cpu.iq.fu_full::SimdMultAcc                  0      0.00%     63.05% # attempts to use FU when none available
system.cpu.iq.fu_full::SimdShift                 1401      0.15%     63.19% # attempts to use FU when none available
system.cpu.iq.fu_full::SimdShiftAcc                 0      0.00%     63.19% # attempts to use FU when none available
system.cpu.iq.fu_full::SimdDiv                      0      0.00%     63.19% # attempts to use FU when none available
system.cpu.iq.fu_full::SimdSqrt                     0      0.00%     63.19% # attempts to use FU when none available
system.cpu.iq.fu_full::SimdFloatAdd                 0      0.00%     63.19% # attempts to use FU when none available
system.cpu.iq.fu_full::SimdFloatAlu                 0      0.00%     63.19% # attempts to use FU when none available
system.cpu.iq.fu_full::SimdFloatCmp                 0      0.00%     63.19% # attempts to use FU when none available
system.cpu.iq.fu_full::SimdFloatCvt                 0      0.00%     63.19% # attempts to use FU when none available
system.cpu.iq.fu_full::SimdFloatDiv                 0      0.00%     63.19% # attempts to use FU when none available
system.cpu.iq.fu_full::SimdFloatMisc                0      0.00%     63.19% # attempts to use FU when none available
system.cpu.iq.fu_full::SimdFloatMult                0      0.00%     63.19% # attempts to use FU when none available
system.cpu.iq.fu_full::SimdFloatMultAcc             0      0.00%     63.19% # attempts to use FU when none available
system.cpu.iq.fu_full::SimdFloatSqrt                0      0.00%     63.19% # attempts to use FU when none available
system.cpu.iq.fu_full::SimdReduceAdd                0      0.00%     63.19% # attempts to use FU when none available
system.cpu.iq.fu_full::SimdReduceAlu                0      0.00%     63.19% # attempts to use FU when none available
system.cpu.iq.fu_full::SimdReduceCmp                0      0.00%     63.19% # attempts to use FU when none available
system.cpu.iq.fu_full::SimdFloatReduceAdd            0      0.00%     63.19% # attempts to use FU when none available
system.cpu.iq.fu_full::SimdFloatReduceCmp            0      0.00%     63.19% # attempts to use FU when none available
system.cpu.iq.fu_full::SimdAes                      0      0.00%     63.19% # attempts to use FU when none available
system.cpu.iq.fu_full::SimdAesMix                   0      0.00%     63.19% # attempts to use FU when none available
system.cpu.iq.fu_full::SimdSha1Hash                 0      0.00%     63.19% # attempts to use FU when none available
system.cpu.iq.fu_full::SimdSha1Hash2                0      0.00%     63.19% # attempts to use FU when none available
system.cpu.iq.fu_full::SimdSha256Hash               0      0.00%     63.19% # attempts to use FU when none available
system.cpu.iq.fu_full::SimdSha256Hash2              0      0.00%     63.19% # attempts to use FU when none available
system.cpu.iq.fu_full::SimdShaSigma2                0      0.00%     63.19% # attempts to use FU when none available
system.cpu.iq.fu_full::SimdShaSigma3                0      0.00%     63.19% # attempts to use FU when none available
system.cpu.iq.fu_full::SimdPredAlu                  0      0.00%     63.19% # attempts to use FU when none available
system.cpu.iq.fu_full::MemRead                 267796     27.76%     90.95% # attempts to use FU when none available
system.cpu.iq.fu_full::MemWrite                 87279      9.05%    100.00% # attempts to use FU when none available
system.cpu.iq.fu_full::FloatMemRead                 0      0.00%    100.00% # attempts to use FU when none available
system.cpu.iq.fu_full::FloatMemWrite                0      0.00%    100.00% # attempts to use FU when none available
system.cpu.iq.fu_full::IprAccess                    0      0.00%    100.00% # attempts to use FU when none available
system.cpu.iq.fu_full::InstPrefetch                 0      0.00%    100.00% # attempts to use FU when none available
system.cpu.iq.int_alu_accesses                3477715                       # Number of integer alu accesses
system.cpu.iq.int_inst_queue_reads            6285000                       # Number of integer instruction queue reads
system.cpu.iq.int_inst_queue_wakeup_accesses      1575202                       # Number of integer instruction queue wakeup accesses
system.cpu.iq.int_inst_queue_writes           2510696                       # Number of integer instruction queue writes
system.cpu.iq.iqInstsAdded                    1958481                       # Number of instructions added to the IQ (excludes non-spec)
system.cpu.iq.iqInstsIssued                   1721839                       # Number of instructions issued
system.cpu.iq.iqNonSpecInstsAdded                 764                       # Number of non-speculative instructions added to the IQ
system.cpu.iq.iqSquashedInstsExamined          703122                       # Number of squashed instructions iterated over during squash; mainly for profiling
system.cpu.iq.iqSquashedInstsIssued             41168                       # Number of squashed instructions issued
system.cpu.iq.iqSquashedNonSpecRemoved             67                       # Number of squashed non-spec instructions that were removed
system.cpu.iq.iqSquashedOperandsExamined       963910                       # Number of squashed operands that are examined and possibly removed from graph
system.cpu.iq.issued_per_cycle::samples       1104385                       # Number of insts issued each cycle
system.cpu.iq.issued_per_cycle::mean         1.559093                       # Number of insts issued each cycle
system.cpu.iq.issued_per_cycle::stdev        1.853721                       # Number of insts issued each cycle
system.cpu.iq.issued_per_cycle::underflows            0      0.00%      0.00% # Number of insts issued each cycle
system.cpu.iq.issued_per_cycle::0              522704     47.33%     47.33% # Number of insts issued each cycle
system.cpu.iq.issued_per_cycle::1              153146     13.87%     61.20% # Number of insts issued each cycle
system.cpu.iq.issued_per_cycle::2               91326      8.27%     69.47% # Number of insts issued each cycle
system.cpu.iq.issued_per_cycle::3               84629      7.66%     77.13% # Number of insts issued each cycle
system.cpu.iq.issued_per_cycle::4              155248     14.06%     91.19% # Number of insts issued each cycle
system.cpu.iq.issued_per_cycle::5               78022      7.06%     98.25% # Number of insts issued each cycle
system.cpu.iq.issued_per_cycle::6               15217      1.38%     99.63% # Number of insts issued each cycle
system.cpu.iq.issued_per_cycle::7                2994      0.27%     99.90% # Number of insts issued each cycle
system.cpu.iq.issued_per_cycle::8                1099      0.10%    100.00% # Number of insts issued each cycle
system.cpu.iq.issued_per_cycle::overflows            0      0.00%    100.00% # Number of insts issued each cycle
system.cpu.iq.issued_per_cycle::min_value            0                       # Number of insts issued each cycle
system.cpu.iq.issued_per_cycle::max_value            8                       # Number of insts issued each cycle
system.cpu.iq.issued_per_cycle::total         1104385                       # Number of insts issued each cycle
system.cpu.iq.rate                           1.446905                       # Inst issue rate
system.cpu.iq.vec_alu_accesses                      0                       # Number of vector alu accesses
system.cpu.iq.vec_inst_queue_reads                  0                       # Number of vector instruction queue reads
system.cpu.iq.vec_inst_queue_wakeup_accesses            0                       # Number of vector instruction queue wakeup accesses
system.cpu.iq.vec_inst_queue_writes                 0                       # Number of vector instruction queue writes
system.cpu.memDep0.conflictingLoads              1903                       # Number of conflicting loads.
system.cpu.memDep0.conflictingStores             1070                       # Number of conflicting stores.
system.cpu.memDep0.insertedLoads               130858                       # Number of loads inserted to the mem dependence unit.
system.cpu.memDep0.insertedStores               49497                       # Number of stores inserted to the mem dependence unit.
system.cpu.memDep1.conflictingLoads              1317                       # Number of conflicting loads.
system.cpu.memDep1.conflictingStores              733                       # Number of conflicting stores.
system.cpu.memDep1.insertedLoads               129847                       # Number of loads inserted to the mem dependence unit.
system.cpu.memDep1.insertedStores               49239                       # Number of stores inserted to the mem dependence unit.
system.cpu.misc_regfile_reads                  706162                       # number of misc regfile reads
system.cpu.misc_regfile_writes                    540                       # number of misc regfile writes
system.cpu.numCycles                          1190015                       # number of cpu cycles simulated
system.cpu.numWorkItemsCompleted                    0                       # number of work items this cpu completed
system.cpu.numWorkItemsStarted                      0                       # number of work items this cpu started
system.cpu.timesIdled                            1547                       # Number of times that the entire CPU went into an idle state and unscheduled itself
system.cpu.workload0.numSyscalls                  104                       # Number of system calls
system.cpu.workload1.numSyscalls                  104                       # Number of system calls
system.membus.snoop_filter.hit_multi_requests            0                       # Number of requests hitting in the snoop filter with multiple (>1) holders of the requested data.
system.membus.snoop_filter.hit_multi_snoops            0                       # Number of snoops hitting in the snoop filter with multiple (>1) holders of the requested data.
system.membus.snoop_filter.hit_single_requests            0                       # Number of requests hitting in the snoop filter with a single holder of the requested data.
system.membus.snoop_filter.hit_single_snoops            0                       # Number of snoops hitting in the snoop filter with a single holder of the requested data.
system.membus.snoop_filter.tot_requests         11726                       # Total number of requests made to the snoop filter.
system.membus.snoop_filter.tot_snoops               0                       # Total number of snoops made to the snoop filter.
system.tol2bus.snoop_filter.hit_multi_requests           45                       # Number of requests hitting in the snoop filter with multiple (>1) holders of the requested data.
system.tol2bus.snoop_filter.hit_multi_snoops            0                       # Number of snoops hitting in the snoop filter with multiple (>1) holders of the requested data.
system.tol2bus.snoop_filter.hit_single_requests        25474                       # Number of requests hitting in the snoop filter with a single holder of the requested data.
system.tol2bus.snoop_filter.hit_single_snoops            0                       # Number of snoops hitting in the snoop filter with a single holder of the requested data.
system.tol2bus.snoop_filter.tot_requests        51709                       # Total number of requests made to the snoop filter.
system.tol2bus.snoop_filter.tot_snoops              0                       # Total number of snoops made to the snoop filter.
sim_insts                                      665132                       # Number of instructions simulated
sim_ops                                       1256092                       # Number of ops (including micro ops) simulated
host_inst_rate                                 130548                       # Simulator instruction rate (inst/s)
host_op_rate                                   246539                       # Simulator op (including micro ops) rate (op/s)
system.clk_domain.clock                          1000                       # Clock period in ticks
system.cpu.branchPred.lookups                  273361                       # Number of BP lookups
system.cpu.branchPred.condPredicted            222281                       # Number of conditional branches predicted
system.cpu.branchPred.condIncorrect             23432                       # Number of conditional branches incorrect
system.cpu.branchPred.BTBLookups                93756                       # Number of BTB lookups
system.cpu.branchPred.BTBHits                   82553                       # Number of BTB hits
system.cpu.branchPred.BTBHitPct             88.050898                       # BTB Hit Percentage
system.cpu.branchPred.RASUsed                    8971                       # Number of times the RAS was used to get a target.
system.cpu.branchPred.RASIncorrect                 41                       # Number of incorrect RAS predictions.
system.cpu.branchPred.indirectLookups            6965                       # Number of indirect predictor lookups.
system.cpu.branchPred.indirectHits               1524                       # Number of indirect target hits.
system.cpu.branchPred.indirectMisses             5441                       # Number of indirect misses.
system.cpu.branchPred.indirectMispredicted         1681                       # Number of mispredicted indirect branches.
system.cpu.branchPred.power_state.pwrStateResidencyTicks::UNDEFINED    595007000                       # Cumulative time (in ticks) in various power states
system.cpu.commit.commitSquashedInsts          668068                       # The number of squashed insts skipped by commit
system.cpu.commit.commitNonSpecStalls             696                       # The number of times commit has been forced to stall to communicate backwards
system.cpu.commit.branchMispredicts             19454                       # The number of times a branch was mispredicted
system.cpu.commit.numCommittedDist::samples      1099781                       # Number of insts commited each cycle
system.cpu.commit.numCommittedDist::mean     1.142129                       # Number of insts commited each cycle
system.cpu.commit.numCommittedDist::stdev     2.308811                       # Number of insts commited each cycle
system.cpu.commit.numCommittedDist::underflows            0      0.00%      0.00% # Number of insts commited each cycle
system.cpu.commit.numCommittedDist::0          781574     71.07%     71.07% # Number of insts commited each cycle
system.cpu.commit.numCommittedDist::1           77906      7.08%     78.15% # Number of insts commited each cycle
system.cpu.commit.numCommittedDist::2           53737      4.89%     83.04% # Number of insts commited each cycle
system.cpu.commit.numCommittedDist::3           50995      4.64%     87.67% # Number of insts commited each cycle
system.cpu.commit.numCommittedDist::4           19795      1.80%     89.47% # Number of insts commited each cycle
system.cpu.commit.numCommittedDist::5           19324      1.76%     91.23% # Number of insts commited each cycle
system.cpu.commit.numCommittedDist::6            8892      0.81%     92.04% # Number of insts commited each cycle
system.cpu.commit.numCommittedDist::7           11889      1.08%     93.12% # Number of insts commited each cycle
system.cpu.commit.numCommittedDist::8           75669      6.88%    100.00% # Number of insts commited each cycle
system.cpu.commit.numCommittedDist::overflows            0      0.00%    100.00% # Number of insts commited each cycle
system.cpu.commit.numCommittedDist::min_value            0                       # Number of insts commited each cycle
system.cpu.commit.numCommittedDist::max_value            8                       # Number of insts commited each cycle
system.cpu.commit.numCommittedDist::total      1099781                       # Number of insts commited each cycle
system.cpu.commit.instsCommitted::0            332566                       # Number of instructions committed
system.cpu.commit.instsCommitted::1            332566                       # Number of instructions committed
system.cpu.commit.instsCommitted::total        665132                       # Number of instructions committed
system.cpu.commit.opsCommitted::0              628046                       # Number of ops (including micro ops) committed
system.cpu.commit.opsCommitted::1              628046                       # Number of ops (including micro ops) committed
system.cpu.commit.opsCommitted::total         1256092                       # Number of ops (including micro ops) committed
system.cpu.commit.memRefs::0                   116090                       # Number of memory references committed
system.cpu.commit.memRefs::1                   116090                       # Number of memory references committed
system.cpu.commit.memRefs::total               232180                       # Number of memory references committed
system.cpu.commit.loads::0                      83536                       # Number of loads committed
system.cpu.commit.loads::1                      83536                       # Number of loads committed
system.cpu.commit.loads::total                 167072                       # Number of loads committed
system.cpu.commit.amos::0                           0                       # Number of atomic instructions committed
system.cpu.commit.amos::1                           0                       # Number of atomic instructions committed
system.cpu.commit.amos::total                       0                       # Number of atomic instructions committed
system.cpu.commit.membars::0                       52                       # Number of memory barriers committed
system.cpu.commit.membars::1                       52                       # Number of memory barriers committed
system.cpu.commit.membars::total                  104                       # Number of memory barriers committed
system.cpu.commit.branches::0                   70663                       # Number of branches committed
system.cpu.commit.branches::1                   70663                       # Number of branches committed
system.cpu.commit.branches::total              141326                       # Number of branches committed
system.cpu.commit.vector::0                         0                       # Number of committed Vector instructions.
system.cpu.commit.vector::1                         0                       # Number of committed Vector instructions.
system.cpu.commit.vector::total                     0                       # Number of committed Vector instructions.
system.cpu.commit.floating::0                   26194                       # Number of committed floating point instructions.
system.cpu.commit.floating::1                   26194                       # Number of committed floating point instructions.
system.cpu.commit.floating::total               52388                       # Number of committed floating point instructions.
system.cpu.commit.integer::0                   609276                       # Number of committed integer instructions.
system.cpu.commit.integer::1                   609276                       # Number of committed integer instructions.
system.cpu.commit.integer::total              1218552                       # Number of committed integer instructions.
system.cpu.commit.functionCalls::0               2470                       # Number of function calls committed.
system.cpu.commit.functionCalls::1               2470                       # Number of function calls committed.
system.cpu.commit.functionCalls::total           4940                       # Number of function calls committed.
system.cpu.commit.committedInstType_0::No_OpClass         6845      1.09%      1.09% # Class of committed instruction
system.cpu.commit.committedInstType_0::IntAlu       487874     77.68%     78.77% # Class of committed instruction
system.cpu.commit.committedInstType_0::IntMult           58      0.01%     78.78% # Class of committed instruction
system.cpu.commit.committedInstType_0::IntDiv         2792      0.44%     79.22% # Class of committed instruction
system.cpu.commit.committedInstType_0::FloatAdd          992      0.16%     79.38% # Class of committed instruction
system.cpu.commit.committedInstType_0::FloatCmp            0      0.00%     79.38% # Class of committed instruction
system.cpu.commit.committedInstType_0::FloatCvt          480      0.08%     79.46% # Class of committed instruction
system.cpu.commit.committedInstType_0::FloatMult            0      0.00%     79.46% # Class of committed instruction
system.cpu.commit.committedInstType_0::FloatMultAcc            0      0.00%     79.46% # Class of committed instruction
system.cpu.commit.committedInstType_0::FloatDiv            0      0.00%     79.46% # Class of committed instruction
system.cpu.commit.committedInstType_0::FloatMisc            0      0.00%     79.46% # Class of committed instruction
system.cpu.commit.committedInstType_0::FloatSqrt            0      0.00%     79.46% # Class of committed instruction
system.cpu.commit.committedInstType_0::SimdAdd         1788      0.28%     79.74% # Class of committed instruction
system.cpu.commit.committedInstType_0::SimdAddAcc            0      0.00%     79.74% # Class of committed instruction
system.cpu.commit.committedInstType_0::SimdAlu         3133      0.50%     80.24% # Class of committed instruction
system.cpu.commit.committedInstType_0::SimdCmp            6      0.00%     80.24% # Class of committed instruction
system.cpu.commit.committedInstType_0::SimdCvt         3990      0.64%     80.88% # Class of committed instruction
system.cpu.commit.committedInstType_0::SimdMisc         3131      0.50%     81.38% # Class of committed instruction
system.cpu.commit.committedInstType_0::SimdMult            0      0.00%     81.38% # Class of committed instruction
system.cpu.commit.committedInstType_0::SimdMultAcc            0      0.00%     81.38% # Class of committed instruction
system.cpu.commit.committedInstType_0::SimdShift          867      0.14%     81.52% # Class of committed instruction
system.cpu.commit.committedInstType_0::SimdShiftAcc            0      0.00%     81.52% # Class of committed instruction
system.cpu.commit.committedInstType_0::SimdDiv            0      0.00%     81.52% # Class of committed instruction
system.cpu.commit.committedInstType_0::SimdSqrt            0      0.00%     81.52% # Class of committed instruction
system.cpu.commit.committedInstType_0::SimdFloatAdd            0      0.00%     81.52% # Class of committed instruction
system.cpu.commit.committedInstType_0::SimdFloatAlu            0      0.00%     81.52% # Class of committed instruction
system.cpu.commit.committedInstType_0::SimdFloatCmp            0      0.00%     81.52% # Class of committed instruction
system.cpu.commit.committedInstType_0::SimdFloatCvt            0      0.00%     81.52% # Class of committed instruction
system.cpu.commit.committedInstType_0::SimdFloatDiv            0      0.00%     81.52% # Class of committed instruction
system.cpu.commit.committedInstType_0::SimdFloatMisc            0      0.00%     81.52% # Class of committed instruction
system.cpu.commit.committedInstType_0::SimdFloatMult            0      0.00%     81.52% # Class of committed instruction
system.cpu.commit.committedInstType_0::SimdFloatMultAcc            0      0.00%     81.52% # Class of committed instruction
system.cpu.commit.committedInstType_0::SimdFloatSqrt            0      0.00%     81.52% # Class of committed instruction
system.cpu.commit.committedInstType_0::SimdReduceAdd            0      0.00%     81.52% # Class of committed instruction
system.cpu.commit.committedInstType_0::SimdReduceAlu            0      0.00%     81.52% # Class of committed instruction
system.cpu.commit.committedInstType_0::SimdReduceCmp            0      0.00%     81.52% # Class of committed instruction
system.cpu.commit.committedInstType_0::SimdFloatReduceAdd            0      0.00%     81.52% # Class of committed instruction
system.cpu.commit.committedInstType_0::SimdFloatReduceCmp            0      0.00%     81.52% # Class of committed instruction
system.cpu.commit.committedInstType_0::SimdAes            0      0.00%     81.52% # Class of committed instruction
system.cpu.commit.committedInstType_0::SimdAesMix            0      0.00%     81.52% # Class of committed instruction
system.cpu.commit.committedInstType_0::SimdSha1Hash            0      0.00%     81.52% # Class of committed instruction
system.cpu.commit.committedInstType_0::SimdSha1Hash2            0      0.00%     81.52% # Class of committed instruction
system.cpu.commit.committedInstType_0::SimdSha256Hash            0      0.00%     81.52% # Class of committed instruction
system.cpu.commit.committedInstType_0::SimdSha256Hash2            0      0.00%     81.52% # Class of committed instruction
system.cpu.commit.committedInstType_0::SimdShaSigma2            0      0.00%     81.52% # Class of committed instruction
system.cpu.commit.committedInstType_0::SimdShaSigma3            0      0.00%     81.52% # Class of committed instruction
system.cpu.commit.committedInstType_0::SimdPredAlu            0      0.00%     81.52% # Class of committed instruction
system.cpu.commit.committedInstType_0::MemRead        77795     12.39%     93.90% # Class of committed instruction
system.cpu.commit.committedInstType_0::MemWrite        27200      4.33%     98.23% # Class of committed instruction
system.cpu.commit.committedInstType_0::FloatMemRead         5741      0.91%     99.15% # Class of committed instruction
system.cpu.commit.committedInstType_0::FloatMemWrite         5354      0.85%    100.00% # Class of committed instruction
system.cpu.commit.committedInstType_0::IprAccess            0      0.00%    100.00% # Class of committed instruction
system.cpu.commit.committedInstType_0::InstPrefetch            0      0.00%    100.00% # Class of committed instruction
system.cpu.commit.committedInstType_0::total       628046                       # Class of committed instruction
system.cpu.commit.committedInstType_1::No_OpClass         6845      1.09%      1.09% # Class of committed instruction
system.cpu.commit.committedInstType_1::IntAlu       487874     77.68%     78.77% # Class of committed instruction
system.cpu.commit.committedInstType_1::IntMult           58      0.01%     78.78% # Class of committed instruction
system.cpu.commit.committedInstType_1::IntDiv         2792      0.44%     79.22% # Class of committed instruction
system.cpu.commit.committedInstType_1::FloatAdd          992      0.16%     79.38% # Class of committed instruction
system.cpu.commit.committedInstType_1::FloatCmp            0      0.00%     79.38% # Class of committed instruction
system.cpu.commit.committedInstType_1::FloatCvt          480      0.08%     79.46% # Class of committed instruction
system.cpu.commit.committedInstType_1::FloatMult            0      0.00%     79.46% # Class of committed instruction
system.cpu.commit.committedInstType_1::FloatMultAcc            0      0.00%     79.46% # Class of committed instruction
system.cpu.commit.committedInstType_1::FloatDiv            0      0.00%     79.46% # Class of committed instruction
system.cpu.commit.committedInstType_1::FloatMisc            0      0.00%     79.46% # Class of committed instruction
system.cpu.commit.committedInstType_1::FloatSqrt            0      0.00%     79.46% # Class of committed instruction
system.cpu.commit.committedInstType_1::SimdAdd         1788      0.28%     79.74% # Class of committed instruction
system.cpu.commit.committedInstType_1::SimdAddAcc            0      0.00%     79.74% # Class of committed instruction
system.cpu.commit.committedInstType_1::SimdAlu         3133      0.50%     80.24% # Class of committed instruction
system.cpu.commit.committedInstType_1::SimdCmp            6      0.00%     80.24% # Class of committed instruction
system.cpu.commit.committedInstType_1::SimdCvt         3990      0.64%     80.88% # Class of committed instruction
system.cpu.commit.committedInstType_1::SimdMisc         3131      0.50%     81.38% # Class of committed instruction
system.cpu.commit.committedInstType_1::SimdMult            0      0.00%     81.38% # Class of committed instruction
system.cpu.commit.committedInstType_1::SimdMultAcc            0      0.00%     81.38% # Class of committed instruction
system.cpu.commit.committedInstType_1::SimdShift          867      0.14%     81.52% # Class of committed instruction
system.cpu.commit.committedInstType_1::SimdShiftAcc            0      0.00%     81.52% # Class of committed instruction
system.cpu.commit.committedInstType_1::SimdDiv            0      0.00%     81.52% # Class of committed instruction
system.cpu.commit.committedInstType_1::SimdSqrt            0      0.00%     81.52% # Class of committed instruction
system.cpu.commit.committedInstType_1::SimdFloatAdd            0      0.00%     81.52% # Class of committed instruction
system.cpu.commit.committedInstType_1::SimdFloatAlu            0      0.00%     81.52% # Class of committed instruction
system.cpu.commit.committedInstType_1::SimdFloatCmp            0      0.00%     81.52% # Class of committed instruction
system.cpu.commit.committedInstType_1::SimdFloatCvt            0      0.00%     81.52% # Class of committed instruction
system.cpu.commit.committedInstType_1::SimdFloatDiv            0      0.00%     81.52% # Class of committed instruction
system.cpu.commit.committedInstType_1::SimdFloatMisc            0      0.00%     81.52% # Class of committed instruction
system.cpu.commit.committedInstType_1::SimdFloatMult            0      0.00%     81.52% # Class of committed instruction
system.cpu.commit.committedInstType_1::SimdFloatMultAcc            0      0.00%     81.52% # Class of committed instruction
system.cpu.commit.committedInstType_1::SimdFloatSqrt            0      0.00%     81.52% # Class of committed instruction
system.cpu.commit.committedInstType_1::SimdReduceAdd            0      0.00%     81.52% # Class of committed instruction
system.cpu.commit.committedInstType_1::SimdReduceAlu            0      0.00%     81.52% # Class of committed instruction
system.cpu.commit.committedInstType_1::SimdReduceCmp            0      0.00%     81.52% # Class of committed instruction
system.cpu.commit.committedInstType_1::SimdFloatReduceAdd            0      0.00%     81.52% # Class of committed instruction
system.cpu.commit.committedInstType_1::SimdFloatReduceCmp            0      0.00%     81.52% # Class of committed instruction
system.cpu.commit.committedInstType_1::SimdAes            0      0.00%     81.52% # Class of committed instruction
system.cpu.commit.committedInstType_1::SimdAesMix            0      0.00%     81.52% # Class of committed instruction
system.cpu.commit.committedInstType_1::SimdSha1Hash            0      0.00%     81.52% # Class of committed instruction
system.cpu.commit.committedInstType_1::SimdSha1Hash2            0      0.00%     81.52% # Class of committed instruction
system.cpu.commit.committedInstType_1::SimdSha256Hash            0      0.00%     81.52% # Class of committed instruction
system.cpu.commit.committedInstType_1::SimdSha256Hash2            0      0.00%     81.52% # Class of committed instruction
system.cpu.commit.committedInstType_1::SimdShaSigma2            0      0.00%     81.52% # Class of committed instruction
system.cpu.commit.committedInstType_1::SimdShaSigma3            0      0.00%     81.52% # Class of committed instruction
system.cpu.commit.committedInstType_1::SimdPredAlu            0      0.00%     81.52% # Class of committed instruction
system.cpu.commit.committedInstType_1::MemRead        77795     12.39%     93.90% # Class of committed instruction
system.cpu.commit.committedInstType_1::MemWrite        27200      4.33%     98.23% # Class of committed instruction
system.cpu.commit.committedInstType_1::FloatMemRead         5741      0.91%     99.15% # Class of committed instruction
system.cpu.commit.committedInstType_1::FloatMemWrite         5354      0.85%    100.00% # Class of committed instruction
system.cpu.commit.committedInstType_1::IprAccess            0      0.00%    100.00% # Class of committed instruction
system.cpu.commit.committedInstType_1::InstPrefetch            0      0.00%    100.00% # Class of committed instruction
system.cpu.commit.committedInstType_1::total       628046                       # Class of committed instruction
system.cpu.commit.committedInstType::total      1256092      0.00%      0.00% # Class of committed instruction
system.cpu.commit.commitEligibleSamples         75669                       # number cycles where commit BW limit reached
system.cpu.dcache.demand_hits::.cpu.data       234117                       # number of demand (read+write) hits
system.cpu.dcache.demand_hits::total           234117                       # number of demand (read+write) hits
system.cpu.dcache.overall_hits::.cpu.data       234117                       # number of overall hits
system.cpu.dcache.overall_hits::total          234117                       # number of overall hits
system.cpu.dcache.demand_misses::.cpu.data        48326                       # number of demand (read+write) misses
system.cpu.dcache.demand_misses::total          48326                       # number of demand (read+write) misses
system.cpu.dcache.overall_misses::.cpu.data        48326                       # number of overall misses
system.cpu.dcache.overall_misses::total         48326                       # number of overall misses
system.cpu.dcache.demand_miss_latency::.cpu.data   2032467848                       # number of demand (read+write) miss cycles
system.cpu.dcache.demand_miss_latency::total   2032467848                       # number of demand (read+write) miss cycles
system.cpu.dcache.overall_miss_latency::.cpu.data   2032467848                       # number of overall miss cycles
system.cpu.dcache.overall_miss_latency::total   2032467848                       # number of overall miss cycles
system.cpu.dcache.demand_accesses::.cpu.data       282443                       # number of demand (read+write) accesses
system.cpu.dcache.demand_accesses::total       282443                       # number of demand (read+write) accesses
system.cpu.dcache.overall_accesses::.cpu.data       282443                       # number of overall (read+write) accesses
system.cpu.dcache.overall_accesses::total       282443                       # number of overall (read+write) accesses
system.cpu.dcache.demand_miss_rate::.cpu.data     0.171100                       # miss rate for demand accesses
system.cpu.dcache.demand_miss_rate::total     0.171100                       # miss rate for demand accesses
system.cpu.dcache.overall_miss_rate::.cpu.data     0.171100                       # miss rate for overall accesses
system.cpu.dcache.overall_miss_rate::total     0.171100                       # miss rate for overall accesses
system.cpu.dcache.demand_avg_miss_latency::.cpu.data 42057.440053                       # average overall miss latency
system.cpu.dcache.demand_avg_miss_latency::total 42057.440053                       # average overall miss latency
system.cpu.dcache.overall_avg_miss_latency::.cpu.data 42057.440053                       # average overall miss latency
system.cpu.dcache.overall_avg_miss_latency::total 42057.440053                       # average overall miss latency
system.cpu.dcache.blocked_cycles::no_mshrs            2                       # number of cycles access was blocked
system.cpu.dcache.blocked_cycles::no_targets        75178                       # number of cycles access was blocked
system.cpu.dcache.blocked::no_mshrs                 1                       # number of cycles access was blocked
system.cpu.dcache.blocked::no_targets            1048                       # number of cycles access was blocked
system.cpu.dcache.avg_blocked_cycles::no_mshrs            2                       # average number of cycles each access was blocked
system.cpu.dcache.avg_blocked_cycles::no_targets    71.734733                       # average number of cycles each access was blocked
system.cpu.dcache.writebacks::.writebacks        20642                       # number of writebacks
system.cpu.dcache.writebacks::total             20642                       # number of writebacks
system.cpu.dcache.demand_mshr_hits::.cpu.data        27437                       # number of demand (read+write) MSHR hits
system.cpu.dcache.demand_mshr_hits::total        27437                       # number of demand (read+write) MSHR hits
system.cpu.dcache.overall_mshr_hits::.cpu.data        27437                       # number of overall MSHR hits
system.cpu.dcache.overall_mshr_hits::total        27437                       # number of overall MSHR hits
system.cpu.dcache.demand_mshr_misses::.cpu.data        20889                       # number of demand (read+write) MSHR misses
system.cpu.dcache.demand_mshr_misses::total        20889                       # number of demand (read+write) MSHR misses
system.cpu.dcache.overall_mshr_misses::.cpu.data        20889                       # number of overall MSHR misses
system.cpu.dcache.overall_mshr_misses::total        20889                       # number of overall MSHR misses
system.cpu.dcache.demand_mshr_miss_latency::.cpu.data    733208348                       # number of demand (read+write) MSHR miss cycles
system.cpu.dcache.demand_mshr_miss_latency::total    733208348                       # number of demand (read+write) MSHR miss cycles
system.cpu.dcache.overall_mshr_miss_latency::.cpu.data    733208348                       # number of overall MSHR miss cycles
system.cpu.dcache.overall_mshr_miss_latency::total    733208348                       # number of overall MSHR miss cycles
system.cpu.dcache.demand_mshr_miss_rate::.cpu.data     0.073958                       # mshr miss rate for demand accesses
system.cpu.dcache.demand_mshr_miss_rate::total     0.073958                       # mshr miss rate for demand accesses
system.cpu.dcache.overall_mshr_miss_rate::.cpu.data     0.073958                       # mshr miss rate for overall accesses
system.cpu.dcache.overall_mshr_miss_rate::total     0.073958                       # mshr miss rate for overall accesses
system.cpu.dcache.demand_avg_mshr_miss_latency::.cpu.data 35100.212935                       # average overall mshr miss latency
system.cpu.dcache.demand_avg_mshr_miss_latency::total 35100.212935                       # average overall mshr miss latency
system.cpu.dcache.overall_avg_mshr_miss_latency::.cpu.data 35100.212935                       # average overall mshr miss latency
system.cpu.dcache.overall_avg_mshr_miss_latency::total 35100.212935                       # average overall mshr miss latency
system.cpu.dcache.replacements                    661                       # number of replacements
system.cpu.dcache.expired                       19981                       # dead blocks evicted
system.cpu.dcache.ReadReq_hits::.cpu.data       172412                       # number of ReadReq hits
system.cpu.dcache.ReadReq_hits::total          172412                       # number of ReadReq hits
system.cpu.dcache.ReadReq_misses::.cpu.data        44907                       # number of ReadReq misses
system.cpu.dcache.ReadReq_misses::total         44907                       # number of ReadReq misses
system.cpu.dcache.ReadReq_miss_latency::.cpu.data   1864051000                       # number of ReadReq miss cycles
system.cpu.dcache.ReadReq_miss_latency::total   1864051000                       # number of ReadReq miss cycles
system.cpu.dcache.ReadReq_accesses::.cpu.data       217319                       # number of ReadReq accesses(hits+misses)
system.cpu.dcache.ReadReq_accesses::total       217319                       # number of ReadReq accesses(hits+misses)
system.cpu.dcache.ReadReq_miss_rate::.cpu.data     0.206641                       # miss rate for ReadReq accesses
system.cpu.dcache.ReadReq_miss_rate::total     0.206641                       # miss rate for ReadReq accesses
system.cpu.dcache.ReadReq_avg_miss_latency::.cpu.data 41509.141114                       # average ReadReq miss latency
system.cpu.dcache.ReadReq_avg_miss_latency::total 41509.141114                       # average ReadReq miss latency
system.cpu.dcache.ReadReq_mshr_hits::.cpu.data        27416                       # number of ReadReq MSHR hits
system.cpu.dcache.ReadReq_mshr_hits::total        27416                       # number of ReadReq MSHR hits
system.cpu.dcache.ReadReq_mshr_misses::.cpu.data        17491                       # number of ReadReq MSHR misses
system.cpu.dcache.ReadReq_mshr_misses::total        17491                       # number of ReadReq MSHR misses
system.cpu.dcache.ReadReq_mshr_miss_latency::.cpu.data    568616000                       # number of ReadReq MSHR miss cycles
system.cpu.dcache.ReadReq_mshr_miss_latency::total    568616000                       # number of ReadReq MSHR miss cycles
system.cpu.dcache.ReadReq_mshr_miss_rate::.cpu.data     0.080485                       # mshr miss rate for ReadReq accesses
system.cpu.dcache.ReadReq_mshr_miss_rate::total     0.080485                       # mshr miss rate for ReadReq accesses
system.cpu.dcache.ReadReq_avg_mshr_miss_latency::.cpu.data 32509.061803                       # average ReadReq mshr miss latency
system.cpu.dcache.ReadReq_avg_mshr_miss_latency::total 32509.061803                       # average ReadReq mshr miss latency
system.cpu.dcache.WriteReq_hits::.cpu.data        61705                       # number of WriteReq hits
system.cpu.dcache.WriteReq_hits::total          61705                       # number of WriteReq hits
system.cpu.dcache.WriteReq_misses::.cpu.data         3419                       # number of WriteReq misses
system.cpu.dcache.WriteReq_misses::total         3419                       # number of WriteReq misses
system.cpu.dcache.WriteReq_miss_latency::.cpu.data    168416848                       # number of WriteReq miss cycles
system.cpu.dcache.WriteReq_miss_latency::total    168416848                       # number of WriteReq miss cycles
system.cpu.dcache.WriteReq_accesses::.cpu.data        65124                       # number of WriteReq accesses(hits+misses)
system.cpu.dcache.WriteReq_accesses::total        65124                       # number of WriteReq accesses(hits+misses)
system.cpu.dcache.WriteReq_miss_rate::.cpu.data     0.052500                       # miss rate for WriteReq accesses
system.cpu.dcache.WriteReq_miss_rate::total     0.052500                       # miss rate for WriteReq accesses
system.cpu.dcache.WriteReq_avg_miss_latency::.cpu.data 49259.095642                       # average WriteReq miss latency
system.cpu.dcache.WriteReq_avg_miss_latency::total 49259.095642                       # average WriteReq miss latency
system.cpu.dcache.WriteReq_mshr_hits::.cpu.data           21                       # number of WriteReq MSHR hits
system.cpu.dcache.WriteReq_mshr_hits::total           21                       # number of WriteReq MSHR hits
system.cpu.dcache.WriteReq_mshr_misses::.cpu.data         3398                       # number of WriteReq MSHR misses
system.cpu.dcache.WriteReq_mshr_misses::total         3398                       # number of WriteReq MSHR misses
system.cpu.dcache.WriteReq_mshr_miss_latency::.cpu.data    164592348                       # number of WriteReq MSHR miss cycles
system.cpu.dcache.WriteReq_mshr_miss_latency::total    164592348                       # number of WriteReq MSHR miss cycles
system.cpu.dcache.WriteReq_mshr_miss_rate::.cpu.data     0.052177                       # mshr miss rate for WriteReq accesses
system.cpu.dcache.WriteReq_mshr_miss_rate::total     0.052177                       # mshr miss rate for WriteReq accesses
system.cpu.dcache.WriteReq_avg_mshr_miss_latency::.cpu.data 48438.007063                       # average WriteReq mshr miss latency
system.cpu.dcache.WriteReq_avg_mshr_miss_latency::total 48438.007063                       # average WriteReq mshr miss latency
system.cpu.dcache.power_state.pwrStateResidencyTicks::UNDEFINED    595007000                       # Cumulative time (in ticks) in various power states
system.cpu.dcache.tags.tagsinuse           206.483228                       # Cycle average of tags in use
system.cpu.dcache.tags.total_refs              255006                       # Total number of references to valid blocks.
system.cpu.dcache.tags.sampled_refs             20888                       # Sample count of references to valid blocks.
system.cpu.dcache.tags.avg_refs             12.208254                       # Average number of references to valid blocks.
system.cpu.dcache.tags.warmup_cycle            192500                       # Cycle when the warmup percentage was hit.
system.cpu.dcache.tags.occ_blocks::.cpu.data   206.483228                       # Average occupied blocks per requestor
system.cpu.dcache.tags.occ_percent::.cpu.data     0.403288                       # Average percentage of cache occupancy
system.cpu.dcache.tags.occ_percent::total     0.403288                       # Average percentage of cache occupancy
system.cpu.dcache.tags.occ_task_id_blocks::1024          246                       # Occupied blocks per task id
system.cpu.dcache.tags.age_task_id_blocks_1024::0          238                       # Occupied blocks per task id
system.cpu.dcache.tags.age_task_id_blocks_1024::1            8                       # Occupied blocks per task id
system.cpu.dcache.tags.occ_task_id_percent::1024     0.480469                       # Percentage of cache occupancy per task id
system.cpu.dcache.tags.tag_accesses           2280432                       # Number of tag accesses
system.cpu.dcache.tags.data_accesses          2280432                       # Number of data accesses
system.cpu.dcache.tags.power_state.pwrStateResidencyTicks::UNDEFINED    595007000                       # Cumulative time (in ticks) in various power states
system.cpu.decode.idleCycles                   411693                       # Number of cycles decode is idle
system.cpu.decode.blockedCycles               1104056                       # Number of cycles decode is blocked
system.cpu.decode.runCycles                    582892                       # Number of cycles decode is running
system.cpu.decode.unblockCycles                 89930                       # Number of cycles decode is unblocking
system.cpu.decode.squashCycles                  20199                       # Number of cycles decode is squashing
system.cpu.decode.branchResolved                76031                       # Number of times decode resolved a  branch
system.cpu.decode.branchMispred                  4397                       # Number of times decode detected a branch misprediction
system.cpu.decode.decodedInsts                2080553                       # Number of instructions handled by decode
system.cpu.decode.squashedInsts                 95789                       # Number of squashed instructions handled by decode
system.cpu.dtb.rdAccesses                      227765                       # TLB accesses on read requests
system.cpu.dtb.wrAccesses                       84334                       # TLB accesses on write requests
system.cpu.dtb.rdMisses                         18036                       # TLB misses on read requests
system.cpu.dtb.wrMisses                          1052                       # TLB misses on write requests
system.cpu.dtb.walker.power_state.pwrStateResidencyTicks::UNDEFINED    595007000                       # Cumulative time (in ticks) in various power states
system.cpu.dtb_walker_cache.blocked_cycles::no_mshrs            0                       # number of cycles access was blocked
system.cpu.dtb_walker_cache.blocked_cycles::no_targets            0                       # number of cycles access was blocked
system.cpu.dtb_walker_cache.blocked::no_mshrs            0                       # number of cycles access was blocked
system.cpu.dtb_walker_cache.blocked::no_targets            0                       # number of cycles access was blocked
system.cpu.dtb_walker_cache.avg_blocked_cycles::no_mshrs          nan                       # average number of cycles each access was blocked
system.cpu.dtb_walker_cache.avg_blocked_cycles::no_targets          nan                       # average number of cycles each access was blocked
system.cpu.dtb_walker_cache.replacements            0                       # number of replacements
system.cpu.dtb_walker_cache.expired                 0                       # dead blocks evicted
system.cpu.dtb_walker_cache.power_state.pwrStateResidencyTicks::UNDEFINED    595007000                       # Cumulative time (in ticks) in various power states
system.cpu.dtb_walker_cache.tags.tagsinuse            0                       # Cycle average of tags in use
system.cpu.dtb_walker_cache.tags.total_refs            0                       # Total number of references to valid blocks.
system.cpu.dtb_walker_cache.tags.sampled_refs            0                       # Sample count of references to valid blocks.
system.cpu.dtb_walker_cache.tags.avg_refs          nan                       # Average number of references to valid blocks.
system.cpu.dtb_walker_cache.tags.warmup_cycle            0                       # Cycle when the warmup percentage was hit.
system.cpu.dtb_walker_cache.tags.tag_accesses            0                       # Number of tag accesses
system.cpu.dtb_walker_cache.tags.data_accesses            0                       # Number of data accesses
system.cpu.dtb_walker_cache.tags.power_state.pwrStateResidencyTicks::UNDEFINED    595007000                       # Cumulative time (in ticks) in various power states
system.cpu.fetch.icacheStallCycles              18871                       # Number of cycles fetch is stalled on an Icache miss
system.cpu.fetch.insts                        1285886                       # Number of instructions fetch has processed
system.cpu.fetch.branches                      273361                       # Number of branches that fetch encountered
system.cpu.fetch.predictedBranches              93048                       # Number of branches that fetch has predicted taken
system.cpu.fetch.cycles                        951856                       # Number of cycles fetch has run and was not squashing or blocked
system.cpu.fetch.squashCycles                   24458                       # Number of cycles fetch has spent squashing
system.cpu.fetch.tlbCycles                       1402                       # Number of cycles fetch has spent waiting for tlb
system.cpu.fetch.miscStallCycles                   51                       # Number of cycles fetch has spent waiting on interrupts,or bad addresses, or out of MSHRs
system.cpu.fetch.cacheLines                    395947                       # Number of cache lines fetched
system.cpu.fetch.icacheSquashes                  2982                       # Number of outstanding Icache misses that were squashed
system.cpu.fetch.tlbSquashes                      592                       # Number of outstanding ITLB misses that were squashed
system.cpu.fetch.SMTDist::samples             1104385                       # Number of Cycles each Thread Fetched
system.cpu.fetch.SMTDist::mean               0.320803                       # Number of Cycles each Thread Fetched
system.cpu.fetch.SMTDist::stdev              0.676245                       # Number of Cycles each Thread Fetched
system.cpu.fetch.SMTDist::underflows                0      0.00%      0.00% # Number of Cycles each Thread Fetched
system.cpu.fetch.SMTDist::-1                   132205     11.97%     11.97% # Number of Cycles each Thread Fetched
system.cpu.fetch.SMTDist::0                    485685     43.98%     55.95% # Number of Cycles each Thread Fetched
system.cpu.fetch.SMTDist::1                    486495     44.05%    100.00% # Number of Cycles each Thread Fetched
system.cpu.fetch.SMTDist::2                         0      0.00%    100.00% # Number of Cycles each Thread Fetched
system.cpu.fetch.SMTDist::overflows                 0      0.00%    100.00% # Number of Cycles each Thread Fetched
system.cpu.fetch.SMTDist::min_value                -1                       # Number of Cycles each Thread Fetched
system.cpu.fetch.SMTDist::max_value                 1                       # Number of Cycles each Thread Fetched
system.cpu.fetch.SMTDist::total               1104385                       # Number of Cycles each Thread Fetched
system.cpu.fetch.nisnDist::samples            1104385                       # Number of instructions fetched each cycle (Total)
system.cpu.fetch.nisnDist::mean              2.206411                       # Number of instructions fetched each cycle (Total)
system.cpu.fetch.nisnDist::stdev             2.969860                       # Number of instructions fetched each cycle (Total)
system.cpu.fetch.nisnDist::underflows               0      0.00%      0.00% # Number of instructions fetched each cycle (Total)
system.cpu.fetch.nisnDist::0                   628031     56.87%     56.87% # Number of instructions fetched each cycle (Total)
system.cpu.fetch.nisnDist::1                    42339      3.83%     60.70% # Number of instructions fetched each cycle (Total)
system.cpu.fetch.nisnDist::2                    42675      3.86%     64.56% # Number of instructions fetched each cycle (Total)
system.cpu.fetch.nisnDist::3                    51687      4.68%     69.25% # Number of instructions fetched each cycle (Total)
system.cpu.fetch.nisnDist::4                    58728      5.32%     74.56% # Number of instructions fetched each cycle (Total)
system.cpu.fetch.nisnDist::5                    57246      5.18%     79.75% # Number of instructions fetched each cycle (Total)
system.cpu.fetch.nisnDist::6                    50821      4.60%     84.35% # Number of instructions fetched each cycle (Total)
system.cpu.fetch.nisnDist::7                    54955      4.98%     89.32% # Number of instructions fetched each cycle (Total)
system.cpu.fetch.nisnDist::8                   117903     10.68%    100.00% # Number of instructions fetched each cycle (Total)
system.cpu.fetch.nisnDist::overflows                0      0.00%    100.00% # Number of instructions fetched each cycle (Total)
system.cpu.fetch.nisnDist::min_value                0                       # Number of instructions fetched each cycle (Total)
system.cpu.fetch.nisnDist::max_value                8                       # Number of instructions fetched each cycle (Total)
system.cpu.fetch.nisnDist::total              1104385                       # Number of instructions fetched each cycle (Total)
system.cpu.fetch.branchRate                  0.229712                       # Number of branch fetches per cycle
system.cpu.fetch.rate                        1.080563                       # Number of inst fetches per cycle
system.cpu.icache.demand_hits::.cpu.inst       389373                       # number of demand (read+write) hits
system.cpu.icache.demand_hits::total           389373                       # number of demand (read+write) hits
system.cpu.icache.overall_hits::.cpu.inst       389373                       # number of overall hits
system.cpu.icache.overall_hits::total          389373                       # number of overall hits
system.cpu.icache.demand_misses::.cpu.inst         6569                       # number of demand (read+write) misses
system.cpu.icache.demand_misses::total           6569                       # number of demand (read+write) misses
system.cpu.icache.overall_misses::.cpu.inst         6569                       # number of overall misses
system.cpu.icache.overall_misses::total          6569                       # number of overall misses
system.cpu.icache.demand_miss_latency::.cpu.inst    311404500                       # number of demand (read+write) miss cycles
system.cpu.icache.demand_miss_latency::total    311404500                       # number of demand (read+write) miss cycles
system.cpu.icache.overall_miss_latency::.cpu.inst    311404500                       # number of overall miss cycles
system.cpu.icache.overall_miss_latency::total    311404500                       # number of overall miss cycles
system.cpu.icache.demand_accesses::.cpu.inst       395942                       # number of demand (read+write) accesses
[...]
system.mem_ctrls1.dram.perBankWrBursts::2            0                       # Per bank write bursts
system.mem_ctrls1.dram.perBankWrBursts::3            0                       # Per bank write bursts
system.mem_ctrls1.dram.perBankWrBursts::4            0                       # Per bank write bursts
system.mem_ctrls1.dram.perBankWrBursts::5            0                       # Per bank write bursts
system.mem_ctrls1.dram.perBankWrBursts::6            0                       # Per bank write bursts
system.mem_ctrls1.dram.perBankWrBursts::7            0                       # Per bank write bursts
system.mem_ctrls1.dram.perBankWrBursts::8            0                       # Per bank write bursts
system.mem_ctrls1.dram.perBankWrBursts::9            0                       # Per bank write bursts
system.mem_ctrls1.dram.perBankWrBursts::10            0                       # Per bank write bursts
system.mem_ctrls1.dram.perBankWrBursts::11            0                       # Per bank write bursts
system.mem_ctrls1.dram.perBankWrBursts::12            0                       # Per bank write bursts
system.mem_ctrls1.dram.perBankWrBursts::13            0                       # Per bank write bursts
system.mem_ctrls1.dram.perBankWrBursts::14            0                       # Per bank write bursts
system.mem_ctrls1.dram.perBankWrBursts::15            0                       # Per bank write bursts
system.mem_ctrls1.dram.perBankWrBursts::16            0                       # Per bank write bursts
system.mem_ctrls1.dram.perBankWrBursts::17            0                       # Per bank write bursts
system.mem_ctrls1.dram.perBankWrBursts::18            0                       # Per bank write bursts
system.mem_ctrls1.dram.perBankWrBursts::19            0                       # Per bank write bursts
system.mem_ctrls1.dram.perBankWrBursts::20            0                       # Per bank write bursts
system.mem_ctrls1.dram.perBankWrBursts::21            0                       # Per bank write bursts
system.mem_ctrls1.dram.perBankWrBursts::22            0                       # Per bank write bursts
system.mem_ctrls1.dram.perBankWrBursts::23            0                       # Per bank write bursts
system.mem_ctrls1.dram.perBankWrBursts::24            0                       # Per bank write bursts
system.mem_ctrls1.dram.perBankWrBursts::25            0                       # Per bank write bursts
system.mem_ctrls1.dram.perBankWrBursts::26            0                       # Per bank write bursts
system.mem_ctrls1.dram.perBankWrBursts::27            0                       # Per bank write bursts
system.mem_ctrls1.dram.perBankWrBursts::28            0                       # Per bank write bursts
system.mem_ctrls1.dram.perBankWrBursts::29            0                       # Per bank write bursts
system.mem_ctrls1.dram.perBankWrBursts::30            0                       # Per bank write bursts
system.mem_ctrls1.dram.perBankWrBursts::31            0                       # Per bank write bursts
system.mem_ctrls1.dram.totQLat               58312186                       # Total ticks spent queuing
system.mem_ctrls1.dram.totBusLat             19532184                       # Total ticks spent in databus transfers
system.mem_ctrls1.dram.totMemAccLat         160850290                       # Total ticks spent from burst creation until serviced by the DRAM
system.mem_ctrls1.dram.avgQLat                9947.49                       # Average queueing delay per DRAM burst
system.mem_ctrls1.dram.avgBusLat              3332.00                       # Average bus latency per DRAM burst
system.mem_ctrls1.dram.avgMemAccLat          27439.49                       # Average memory access latency per DRAM burst
system.mem_ctrls1.dram.readRowHits               4804                       # Number of row buffer hits during reads
system.mem_ctrls1.dram.writeRowHits                 0                       # Number of row buffer hits during writes
system.mem_ctrls1.dram.readRowHitRate           81.95                       # Row buffer hit rate for reads
system.mem_ctrls1.dram.writeRowHitRate            nan                       # Row buffer hit rate for writes
system.mem_ctrls1.dram.bytesPerActivate::samples         1051                       # Bytes accessed per row activation
system.mem_ctrls1.dram.bytesPerActivate::mean   355.562322                       # Bytes accessed per row activation
system.mem_ctrls1.dram.bytesPerActivate::gmean   227.432237                       # Bytes accessed per row activation
system.mem_ctrls1.dram.bytesPerActivate::stdev   336.248761                       # Bytes accessed per row activation
system.mem_ctrls1.dram.bytesPerActivate::0-127          203     19.31%     19.31% # Bytes accessed per row activation
system.mem_ctrls1.dram.bytesPerActivate::128-255          342     32.54%     51.86% # Bytes accessed per row activation
system.mem_ctrls1.dram.bytesPerActivate::256-383          149     14.18%     66.03% # Bytes accessed per row activation
system.mem_ctrls1.dram.bytesPerActivate::384-511           69      6.57%     72.60% # Bytes accessed per row activation
system.mem_ctrls1.dram.bytesPerActivate::512-639           50      4.76%     77.35% # Bytes accessed per row activation
system.mem_ctrls1.dram.bytesPerActivate::640-767           33      3.14%     80.49% # Bytes accessed per row activation
system.mem_ctrls1.dram.bytesPerActivate::768-895           33      3.14%     83.63% # Bytes accessed per row activation
system.mem_ctrls1.dram.bytesPerActivate::896-1023           26      2.47%     86.11% # Bytes accessed per row activation
system.mem_ctrls1.dram.bytesPerActivate::1024-1151          146     13.89%    100.00% # Bytes accessed per row activation
system.mem_ctrls1.dram.bytesPerActivate::total         1051                       # Bytes accessed per row activation
system.mem_ctrls1.dram.bytesRead               375168                       # Total number of bytes read from DRAM
system.mem_ctrls1.dram.bytesWritten                 0                       # Total number of bytes written to DRAM
system.mem_ctrls1.dram.avgRdBW             630.527036                       # Average DRAM read bandwidth in MiBytes/s
system.mem_ctrls1.dram.avgWrBW                      0                       # Average DRAM write bandwidth in MiBytes/s
system.mem_ctrls1.dram.peakBW                19207.00                       # Theoretical peak bandwidth in MiByte/s
system.mem_ctrls1.dram.busUtil                   3.28                       # Data bus utilization in percentage
system.mem_ctrls1.dram.busUtilRead               3.28                       # Data bus utilization in percentage for reads
system.mem_ctrls1.dram.busUtilWrite              0.00                       # Data bus utilization in percentage for writes
system.mem_ctrls1.dram.pageHitRate              81.95                       # Row buffer hit rate, read and write combined
system.mem_ctrls1.dram.power_state.pwrStateResidencyTicks::UNDEFINED    595007000                       # Cumulative time (in ticks) in various power states
system.mem_ctrls1.dram.rank0.actEnergy   2042782.560000                       # Energy for activate commands per rank (pJ)
system.mem_ctrls1.dram.rank0.preEnergy   2707560.542400                       # Energy for precharge commands per rank (pJ)
system.mem_ctrls1.dram.rank0.readEnergy  15067026.777600                       # Energy for read commands per rank (pJ)
system.mem_ctrls1.dram.rank0.writeEnergy            0                       # Energy for write commands per rank (pJ)
system.mem_ctrls1.dram.rank0.refreshEnergy 105288699.667200                       # Energy for refresh commands per rank (pJ)
system.mem_ctrls1.dram.rank0.actBackEnergy 475764741.950400                       # Energy for active background per rank (pJ)
system.mem_ctrls1.dram.rank0.preBackEnergy 22861699.660800                       # Energy for precharge background per rank (pJ)
system.mem_ctrls1.dram.rank0.actPowerDownEnergy            0                       # Energy for active power-down per rank (pJ)
system.mem_ctrls1.dram.rank0.prePowerDownEnergy            0                       # Energy for precharge power-down per rank (pJ)
system.mem_ctrls1.dram.rank0.selfRefreshEnergy            0                       # Energy for self refresh per rank (pJ)
system.mem_ctrls1.dram.rank0.totalEnergy 623732511.158400                       # Total energy per rank (pJ)
system.mem_ctrls1.dram.rank0.averagePower  1048.277602                       # Core power per rank (mW)
system.mem_ctrls1.dram.rank0.totalIdleTime            0                       # Total Idle time Per DRAM Rank
system.mem_ctrls1.dram.rank0.pwrStateTime::IDLE     32794900                       # Time in different power states
system.mem_ctrls1.dram.rank0.pwrStateTime::REF     26600000                       # Time in different power states
system.mem_ctrls1.dram.rank0.pwrStateTime::SREF            0                       # Time in different power states
system.mem_ctrls1.dram.rank0.pwrStateTime::PRE_PDN            0                       # Time in different power states
system.mem_ctrls1.dram.rank0.pwrStateTime::ACT    535612100                       # Time in different power states
system.mem_ctrls1.dram.rank0.pwrStateTime::ACT_PDN            0                       # Time in different power states
system.mem_ctrls1.dram.rank1.actEnergy   1256857.056000                       # Energy for activate commands per rank (pJ)
system.mem_ctrls1.dram.rank1.preEnergy   1650243.638400                       # Energy for precharge commands per rank (pJ)
system.mem_ctrls1.dram.rank1.readEnergy  9590402.304000                       # Energy for read commands per rank (pJ)
system.mem_ctrls1.dram.rank1.writeEnergy            0                       # Energy for write commands per rank (pJ)
system.mem_ctrls1.dram.rank1.refreshEnergy 105288699.667200                       # Energy for refresh commands per rank (pJ)
system.mem_ctrls1.dram.rank1.actBackEnergy 421756749.792000                       # Energy for active background per rank (pJ)
system.mem_ctrls1.dram.rank1.preBackEnergy 64359365.952000                       # Energy for precharge background per rank (pJ)
system.mem_ctrls1.dram.rank1.actPowerDownEnergy            0                       # Energy for active power-down per rank (pJ)
system.mem_ctrls1.dram.rank1.prePowerDownEnergy            0                       # Energy for precharge power-down per rank (pJ)
system.mem_ctrls1.dram.rank1.selfRefreshEnergy            0                       # Energy for self refresh per rank (pJ)
system.mem_ctrls1.dram.rank1.totalEnergy 603902318.409600                       # Total energy per rank (pJ)
system.mem_ctrls1.dram.rank1.averagePower  1014.949939                       # Core power per rank (mW)
system.mem_ctrls1.dram.rank1.totalIdleTime            0                       # Total Idle time Per DRAM Rank
system.mem_ctrls1.dram.rank1.pwrStateTime::IDLE     96302622                       # Time in different power states
system.mem_ctrls1.dram.rank1.pwrStateTime::REF     26600000                       # Time in different power states
system.mem_ctrls1.dram.rank1.pwrStateTime::SREF            0                       # Time in different power states
system.mem_ctrls1.dram.rank1.pwrStateTime::PRE_PDN            0                       # Time in different power states
system.mem_ctrls1.dram.rank1.pwrStateTime::ACT    472104378                       # Time in different power states
system.mem_ctrls1.dram.rank1.pwrStateTime::ACT_PDN            0                       # Time in different power states
system.mem_ctrls1.power_state.pwrStateResidencyTicks::UNDEFINED    595007000                       # Cumulative time (in ticks) in various power states
system.membus.trans_dist::ReadResp               9605                       # Transaction distribution
system.membus.trans_dist::ReadExReq              2121                       # Transaction distribution
system.membus.trans_dist::ReadExResp             2121                       # Transaction distribution
system.membus.trans_dist::ReadSharedReq          9605                       # Transaction distribution
system.membus.pkt_count_system.l2.mem_side_port::system.mem_ctrls0.port        11728                       # Packet count per connected requestor and responder (bytes)
system.membus.pkt_count_system.l2.mem_side_port::system.mem_ctrls1.port        11724                       # Packet count per connected requestor and responder (bytes)
system.membus.pkt_count_system.l2.mem_side_port::total        23452                       # Packet count per connected requestor and responder (bytes)
system.membus.pkt_count::total                  23452                       # Packet count per connected requestor and responder (bytes)
system.membus.pkt_size_system.l2.mem_side_port::system.mem_ctrls0.port       375296                       # Cumulative packet size per connected requestor and responder (bytes)
system.membus.pkt_size_system.l2.mem_side_port::system.mem_ctrls1.port       375168                       # Cumulative packet size per connected requestor and responder (bytes)
system.membus.pkt_size_system.l2.mem_side_port::total       750464                       # Cumulative packet size per connected requestor and responder (bytes)
system.membus.pkt_size::total                  750464                       # Cumulative packet size per connected requestor and responder (bytes)
system.membus.snoops                                0                       # Total snoops (count)
system.membus.snoopTraffic                          0                       # Total snoop traffic (bytes)
system.membus.snoop_fanout::samples             11726                       # Request fanout histogram
system.membus.snoop_fanout::mean                    0                       # Request fanout histogram
system.membus.snoop_fanout::stdev                   0                       # Request fanout histogram
system.membus.snoop_fanout::underflows              0      0.00%      0.00% # Request fanout histogram
system.membus.snoop_fanout::0                   11726    100.00%    100.00% # Request fanout histogram
system.membus.snoop_fanout::1                       0      0.00%    100.00% # Request fanout histogram
system.membus.snoop_fanout::overflows               0      0.00%    100.00% # Request fanout histogram
system.membus.snoop_fanout::min_value               0                       # Request fanout histogram
system.membus.snoop_fanout::max_value               0                       # Request fanout histogram
system.membus.snoop_fanout::total               11726                       # Request fanout histogram
system.membus.power_state.pwrStateResidencyTicks::UNDEFINED    595007000                       # Cumulative time (in ticks) in various power states
system.membus.reqLayer4.occupancy             7231482                       # Layer occupancy (ticks)
system.membus.reqLayer4.utilization               1.2                       # Layer utilization (%)
system.membus.reqLayer5.occupancy             7252488                       # Layer occupancy (ticks)
system.membus.reqLayer5.utilization               1.2                       # Layer utilization (%)
system.membus.respLayer1.occupancy           62636059                       # Layer occupancy (ticks)
system.membus.respLayer1.utilization             10.5                       # Layer utilization (%)
system.tol2bus.trans_dist::ReadResp             22833                       # Transaction distribution
system.tol2bus.trans_dist::WritebackDirty        10703                       # Transaction distribution
system.tol2bus.trans_dist::WritebackClean        14771                       # Transaction distribution
system.tol2bus.trans_dist::HardPFReq               37                       # Transaction distribution
system.tol2bus.trans_dist::UpgradeReq               1                       # Transaction distribution
system.tol2bus.trans_dist::UpgradeResp              1                       # Transaction distribution
system.tol2bus.trans_dist::ReadExReq             3400                       # Transaction distribution
system.tol2bus.trans_dist::ReadExResp            3400                       # Transaction distribution
system.tol2bus.trans_dist::ReadCleanReq          5346                       # Transaction distribution
system.tol2bus.trans_dist::ReadSharedReq        17488                       # Transaction distribution
system.tol2bus.pkt_count_system.cpu.icache.mem_side_port::system.l2.cpu_side_port        15515                       # Packet count per connected requestor and responder (bytes)
system.tol2bus.pkt_count_system.cpu.dcache.mem_side_port::system.l2.cpu_side_port        62420                       # Packet count per connected requestor and responder (bytes)
system.tol2bus.pkt_count::total                 77935                       # Packet count per connected requestor and responder (bytes)
system.tol2bus.pkt_size_system.cpu.icache.mem_side_port::system.l2.cpu_side_port       650816                       # Cumulative packet size per connected requestor and responder (bytes)
system.tol2bus.pkt_size_system.cpu.dcache.mem_side_port::system.l2.cpu_side_port      2657920                       # Cumulative packet size per connected requestor and responder (bytes)
system.tol2bus.pkt_size::total                3308736                       # Cumulative packet size per connected requestor and responder (bytes)
system.tol2bus.snoops                              45                       # Total snoops (count)
system.tol2bus.snoopTraffic                       512                       # Total snoop traffic (bytes)
system.tol2bus.snoop_fanout::samples            26272                       # Request fanout histogram
system.tol2bus.snoop_fanout::mean            0.001713                       # Request fanout histogram
system.tol2bus.snoop_fanout::stdev           0.041352                       # Request fanout histogram
system.tol2bus.snoop_fanout::underflows             0      0.00%      0.00% # Request fanout histogram
system.tol2bus.snoop_fanout::0                  26227     99.83%     99.83% # Request fanout histogram
system.tol2bus.snoop_fanout::1                     45      0.17%    100.00% # Request fanout histogram
system.tol2bus.snoop_fanout::2                      0      0.00%    100.00% # Request fanout histogram
system.tol2bus.snoop_fanout::3                      0      0.00%    100.00% # Request fanout histogram
system.tol2bus.snoop_fanout::4                      0      0.00%    100.00% # Request fanout histogram
system.tol2bus.snoop_fanout::overflows              0      0.00%    100.00% # Request fanout histogram
system.tol2bus.snoop_fanout::min_value              0                       # Request fanout histogram
system.tol2bus.snoop_fanout::max_value              1                       # Request fanout histogram
system.tol2bus.snoop_fanout::total              26272                       # Request fanout histogram
system.tol2bus.power_state.pwrStateResidencyTicks::UNDEFINED    595007000                       # Cumulative time (in ticks) in various power states
system.tol2bus.reqLayer0.occupancy           51328500                       # Layer occupancy (ticks)
system.tol2bus.reqLayer0.utilization              8.6                       # Layer utilization (%)
system.tol2bus.respLayer0.occupancy           8043947                       # Layer occupancy (ticks)
system.tol2bus.respLayer0.utilization             1.4                       # Layer utilization (%)
system.tol2bus.respLayer1.occupancy          31341482                       # Layer occupancy (ticks)
system.tol2bus.respLayer1.utilization             5.3                       # Layer utilization (%)
system.voltage_domain.voltage                       1                       # Voltage in Volts

---------- End Simulation Statistics   ----------
