
---------- Begin Simulation Statistics ----------
final_tick                                  550373500                       # Number of ticks from beginning of simulation (restored from checkpoints and never reset)
host_mem_usage                               67385324                       # Number of bytes of host memory used
host_seconds                                     4.92                       # Real time elapsed on the host
host_tick_rate                              111927204                       # Simulator tick rate (ticks/s)
sim_freq                                 1000000000000                       # Frequency of simulated ticks
sim_seconds                                  0.000550                       # Number of seconds simulated
sim_ticks                                   550373500                       # Number of ticks simulated
system.cpu.cc_regfile_reads                    933485                       # number of cc regfile reads
system.cpu.cc_regfile_writes                   579791                       # number of cc regfile writes
system.cpu.committedInsts::0                   332566                       # Number of Instructions Simulated
system.cpu.committedInsts::1                   332566                       # Number of Instructions Simulated
system.cpu.committedInsts::total               665132                       # Number of Instructions Simulated
system.cpu.committedOps::0                     628046                       # Number of Ops (including micro ops) Simulated
system.cpu.committedOps::1                     628046                       # Number of Ops (including micro ops) Simulated
system.cpu.committedOps::total                1256092                       # Number of Ops (including micro ops) Simulated
system.cpu.cpi::0                            3.309863                       # CPI: Cycles Per Instruction
system.cpu.cpi::1                            3.309863                       # CPI: Cycles Per Instruction
system.cpu.cpi_total                         1.654932                       # CPI: Total CPI of All Threads
system.cpu.fp_regfile_reads                     96659                       # number of floating regfile reads
system.cpu.fp_regfile_writes                    52288                       # number of floating regfile writes
system.cpu.idleCycles                           76112                       # Total number of cycles that the CPU has spent unscheduled due to idling
system.cpu.iew.branchMispredicts                22022                       # Number of branch mispredicts detected at execute
system.cpu.iew.exec_branches::0                 86757                       # Number of branches executed
system.cpu.iew.exec_branches::1                 87021                       # Number of branches executed
system.cpu.iew.exec_branches::total            173778                       # Number of branches executed
system.cpu.iew.exec_nop::0                          0                       # number of nop insts executed
system.cpu.iew.exec_nop::1                          0                       # number of nop insts executed
system.cpu.iew.exec_nop::total                      0                       # number of nop insts executed
system.cpu.iew.exec_rate                     1.513249                       # Inst execution rate
system.cpu.iew.exec_refs::0                    157397                       # number of memory reference insts executed
system.cpu.iew.exec_refs::1                    157790                       # number of memory reference insts executed
system.cpu.iew.exec_refs::total                315187                       # number of memory reference insts executed
system.cpu.iew.exec_stores::0                   41477                       # Number of stores executed
system.cpu.iew.exec_stores::1                   41700                       # Number of stores executed
system.cpu.iew.exec_stores::total               83177                       # Number of stores executed
system.cpu.iew.exec_swp::0                          0                       # number of swp insts executed
system.cpu.iew.exec_swp::1                          0                       # number of swp insts executed
system.cpu.iew.exec_swp::total                      0                       # number of swp insts executed
system.cpu.iew.iewBlockCycles                  162556                       # Number of cycles IEW is blocking
system.cpu.iew.iewDispLoadInsts                249745                       # Number of dispatched load instructions
system.cpu.iew.iewDispNonSpecInsts                624                       # Number of dispatched non-speculative instructions
system.cpu.iew.iewDispSquashedInsts                 0                       # Number of squashed instructions skipped by dispatch
system.cpu.iew.iewDispStoreInsts                94981                       # Number of dispatched store instructions
system.cpu.iew.iewDispatchedInsts             1875257                       # Number of instructions dispatched to IQ
system.cpu.iew.iewExecLoadInsts::0             115920                       # Number of load instructions executed
system.cpu.iew.iewExecLoadInsts::1             116090                       # Number of load instructions executed
system.cpu.iew.iewExecLoadInsts::total         232010                       # Number of load instructions executed
system.cpu.iew.iewExecSquashedInsts             31232                       # Number of squashed instructions skipped in execute
system.cpu.iew.iewExecutedInsts               1665706                       # Number of executed instructions
system.cpu.iew.iewIQFullEvents                   2465                       # Number of times the IQ has become full, causing a stall
system.cpu.iew.iewIdleCycles                        0                       # Number of cycles IEW is idle
system.cpu.iew.iewLSQFullEvents                  9036                       # Number of times the LSQ has become full, causing a stall
system.cpu.iew.iewSquashCycles                  19609                       # Number of cycles IEW is squashing
system.cpu.iew.iewUnblockCycles                 13579                       # Number of cycles IEW is unblocking
system.cpu.iew.memOrderViolationEvents            129                       # Number of memory order violations
system.cpu.iew.predictedNotTakenIncorrect        16697                       # Number of branches that were predicted not taken incorrectly
system.cpu.iew.predictedTakenIncorrect           5325                       # Number of branches that were predicted taken incorrectly
system.cpu.iew.wb_consumers::0                1024111                       # num instructions consuming a value
system.cpu.iew.wb_consumers::1                1027835                       # num instructions consuming a value
system.cpu.iew.wb_consumers::total            2051946                       # num instructions consuming a value
system.cpu.iew.wb_count::0                     818756                       # cumulative count of insts written-back
system.cpu.iew.wb_count::1                     821723                       # cumulative count of insts written-back
system.cpu.iew.wb_count::total                1640479                       # cumulative count of insts written-back
system.cpu.iew.wb_fanout::0                  0.599011                       # average fanout of values written-back
system.cpu.iew.wb_fanout::1                  0.598707                       # average fanout of values written-back
system.cpu.iew.wb_fanout::total              0.598859                       # average fanout of values written-back
system.cpu.iew.wb_producers::0                 613454                       # num instructions producing a value
system.cpu.iew.wb_producers::1                 615372                       # num instructions producing a value
system.cpu.iew.wb_producers::total            1228826                       # num instructions producing a value
system.cpu.iew.wb_rate::0                    0.743818                       # insts written-back per cycle
system.cpu.iew.wb_rate::1                    0.746513                       # insts written-back per cycle
system.cpu.iew.wb_rate::total                1.490331                       # insts written-back per cycle
system.cpu.iew.wb_sent::0                      820719                       # cumulative count of insts sent to commit
system.cpu.iew.wb_sent::1                      823729                       # cumulative count of insts sent to commit
system.cpu.iew.wb_sent::total                 1644448                       # cumulative count of insts sent to commit
system.cpu.int_regfile_reads                  2417665                       # number of integer regfile reads
system.cpu.int_regfile_writes                 1328943                       # number of integer regfile writes
system.cpu.ipc::0                            0.302127                       # IPC: Instructions Per Cycle
system.cpu.ipc::1                            0.302127                       # IPC: Instructions Per Cycle
system.cpu.ipc_total                         0.604255                       # IPC: Total IPC of All Threads
system.cpu.iq.FU_type_0::No_OpClass             12279      1.43%      1.43% # Type of FU issued
system.cpu.iq.FU_type_0::IntAlu                646715     75.53%     76.96% # Type of FU issued
system.cpu.iq.FU_type_0::IntMult                   76      0.01%     76.97% # Type of FU issued
system.cpu.iq.FU_type_0::IntDiv                  2987      0.35%     77.32% # Type of FU issued
system.cpu.iq.FU_type_0::FloatAdd                2538      0.30%     77.61% # Type of FU issued
system.cpu.iq.FU_type_0::FloatCmp                   0      0.00%     77.61% # Type of FU issued
system.cpu.iq.FU_type_0::FloatCvt                 578      0.07%     77.68% # Type of FU issued
system.cpu.iq.FU_type_0::FloatMult                  0      0.00%     77.68% # Type of FU issued
system.cpu.iq.FU_type_0::FloatMultAcc               0      0.00%     77.68% # Type of FU issued
system.cpu.iq.FU_type_0::FloatDiv                   0      0.00%     77.68% # Type of FU issued
system.cpu.iq.FU_type_0::FloatMisc                  0      0.00%     77.68% # Type of FU issued
system.cpu.iq.FU_type_0::FloatSqrt                  0      0.00%     77.68% # Type of FU issued
system.cpu.iq.FU_type_0::SimdAdd                 2185      0.26%     77.94% # Type of FU issued
system.cpu.iq.FU_type_0::SimdAddAcc                 0      0.00%     77.94% # Type of FU issued
system.cpu.iq.FU_type_0::SimdAlu                 5193      0.61%     78.54% # Type of FU issued
system.cpu.iq.FU_type_0::SimdCmp                    6      0.00%     78.54% # Type of FU issued
system.cpu.iq.FU_type_0::SimdCvt                 5340      0.62%     79.17% # Type of FU issued
system.cpu.iq.FU_type_0::SimdMisc                3662      0.43%     79.60% # Type of FU issued
system.cpu.iq.FU_type_0::SimdMult                   0      0.00%     79.60% # Type of FU issued
system.cpu.iq.FU_type_0::SimdMultAcc                0      0.00%     79.60% # Type of FU issued
system.cpu.iq.FU_type_0::SimdShift               1071      0.13%     79.72% # Type of FU issued
system.cpu.iq.FU_type_0::SimdShiftAcc               0      0.00%     79.72% # Type of FU issued
system.cpu.iq.FU_type_0::SimdDiv                    0      0.00%     79.72% # Type of FU issued
system.cpu.iq.FU_type_0::SimdSqrt                   0      0.00%     79.72% # Type of FU issued
system.cpu.iq.FU_type_0::SimdFloatAdd               0      0.00%     79.72% # Type of FU issued
system.cpu.iq.FU_type_0::SimdFloatAlu               0      0.00%     79.72% # Type of FU issued
system.cpu.iq.FU_type_0::SimdFloatCmp               0      0.00%     79.72% # Type of FU issued
system.cpu.iq.FU_type_0::SimdFloatCvt               0      0.00%     79.72% # Type of FU issued
system.cpu.iq.FU_type_0::SimdFloatDiv               0      0.00%     79.72% # Type of FU issued
system.cpu.iq.FU_type_0::SimdFloatMisc              0      0.00%     79.72% # Type of FU issued
system.cpu.iq.FU_type_0::SimdFloatMult              0      0.00%     79.72% # Type of FU issued
system.cpu.iq.FU_type_0::SimdFloatMultAcc            0      0.00%     79.72% # Type of FU issued
system.cpu.iq.FU_type_0::SimdFloatSqrt              0      0.00%     79.72% # Type of FU issued
system.cpu.iq.FU_type_0::SimdReduceAdd              0      0.00%     79.72% # Type of FU issued
system.cpu.iq.FU_type_0::SimdReduceAlu              0      0.00%     79.72% # Type of FU issued
system.cpu.iq.FU_type_0::SimdReduceCmp              0      0.00%     79.72% # Type of FU issued
system.cpu.iq.FU_type_0::SimdFloatReduceAdd            0      0.00%     79.72% # Type of FU issued
system.cpu.iq.FU_type_0::SimdFloatReduceCmp            0      0.00%     79.72% # Type of FU issued
system.cpu.iq.FU_type_0::SimdAes                    0      0.00%     79.72% # Type of FU issued
system.cpu.iq.FU_type_0::SimdAesMix                 0      0.00%     79.72% # Type of FU issued
system.cpu.iq.FU_type_0::SimdSha1Hash               0      0.00%     79.72% # Type of FU issued
system.cpu.iq.FU_type_0::SimdSha1Hash2              0      0.00%     79.72% # Type of FU issued
system.cpu.iq.FU_type_0::SimdSha256Hash             0      0.00%     79.72% # Type of FU issued
system.cpu.iq.FU_type_0::SimdSha256Hash2            0      0.00%     79.72% # Type of FU issued
system.cpu.iq.FU_type_0::SimdShaSigma2              0      0.00%     79.72% # Type of FU issued
system.cpu.iq.FU_type_0::SimdShaSigma3              0      0.00%     79.72% # Type of FU issued
system.cpu.iq.FU_type_0::SimdPredAlu                0      0.00%     79.72% # Type of FU issued
system.cpu.iq.FU_type_0::MemRead               119303     13.93%     93.65% # Type of FU issued
system.cpu.iq.FU_type_0::MemWrite               36431      4.25%     97.91% # Type of FU issued
system.cpu.iq.FU_type_0::FloatMemRead           11204      1.31%     99.22% # Type of FU issued
system.cpu.iq.FU_type_0::FloatMemWrite           6704      0.78%    100.00% # Type of FU issued
system.cpu.iq.FU_type_0::IprAccess                  0      0.00%    100.00% # Type of FU issued
system.cpu.iq.FU_type_0::InstPrefetch               0      0.00%    100.00% # Type of FU issued
system.cpu.iq.FU_type_0::total                 856272                       # Type of FU issued
system.cpu.iq.FU_type_1::No_OpClass             12502      1.45%      1.45% # Type of FU issued
system.cpu.iq.FU_type_1::IntAlu                648744     75.47%     76.93% # Type of FU issued
system.cpu.iq.FU_type_1::IntMult                   74      0.01%     76.93% # Type of FU issued
system.cpu.iq.FU_type_1::IntDiv                  2986      0.35%     77.28% # Type of FU issued
system.cpu.iq.FU_type_1::FloatAdd                2503      0.29%     77.57% # Type of FU issued
system.cpu.iq.FU_type_1::FloatCmp                   0      0.00%     77.57% # Type of FU issued
system.cpu.iq.FU_type_1::FloatCvt                 587      0.07%     77.64% # Type of FU issued
system.cpu.iq.FU_type_1::FloatMult                  0      0.00%     77.64% # Type of FU issued
system.cpu.iq.FU_type_1::FloatMultAcc               0      0.00%     77.64% # Type of FU issued
system.cpu.iq.FU_type_1::FloatDiv                   0      0.00%     77.64% # Type of FU issued
system.cpu.iq.FU_type_1::FloatMisc                  0      0.00%     77.64% # Type of FU issued
system.cpu.iq.FU_type_1::FloatSqrt                  0      0.00%     77.64% # Type of FU issued
system.cpu.iq.FU_type_1::SimdAdd                 2204      0.26%     77.90% # Type of FU issued
system.cpu.iq.FU_type_1::SimdAddAcc                 0      0.00%     77.90% # Type of FU issued
system.cpu.iq.FU_type_1::SimdAlu                 5304      0.62%     78.52% # Type of FU issued
system.cpu.iq.FU_type_1::SimdCmp                    6      0.00%     78.52% # Type of FU issued
system.cpu.iq.FU_type_1::SimdCvt                 5473      0.64%     79.15% # Type of FU issued
system.cpu.iq.FU_type_1::SimdMisc                3705      0.43%     79.58% # Type of FU issued
system.cpu.iq.FU_type_1::SimdMult                   0      0.00%     79.58% # Type of FU issued
system.cpu.iq.FU_type_1::SimdMultAcc                0      0.00%     79.58% # Type of FU issued
system.cpu.iq.FU_type_1::SimdShift               1081      0.13%     79.71% # Type of FU issued
system.cpu.iq.FU_type_1::SimdShiftAcc               0      0.00%     79.71% # Type of FU issued
system.cpu.iq.FU_type_1::SimdDiv                    0      0.00%     79.71% # Type of FU issued
system.cpu.iq.FU_type_1::SimdSqrt                   0      0.00%     79.71% # Type of FU issued
system.cpu.iq.FU_type_1::SimdFloatAdd               0      0.00%     79.71% # Type of FU issued
system.cpu.iq.FU_type_1::SimdFloatAlu               0      0.00%     79.71% # Type of FU issued
system.cpu.iq.FU_type_1::SimdFloatCmp               0      0.00%     79.71% # Type of FU issued
system.cpu.iq.FU_type_1::SimdFloatCvt               0      0.00%     79.71% # Type of FU issued
system.cpu.iq.FU_type_1::SimdFloatDiv               0      0.00%     79.71% # Type of FU issued
system.cpu.iq.FU_type_1::SimdFloatMisc              0      0.00%     79.71% # Type of FU issued
system.cpu.iq.FU_type_1::SimdFloatMult              0      0.00%     79.71% # Type of FU issued
system.cpu.iq.FU_type_1::SimdFloatMultAcc            0      0.00%     79.71% # Type of FU issued
system.cpu.iq.FU_type_1::SimdFloatSqrt              0      0.00%     79.71% # Type of FU issued
system.cpu.iq.FU_type_1::SimdReduceAdd              0      0.00%     79.71% # Type of FU issued
system.cpu.iq.FU_type_1::SimdReduceAlu              0      0.00%     79.71% # Type of FU issued
system.cpu.iq.FU_type_1::SimdReduceCmp              0      0.00%     79.71% # Type of FU issued
system.cpu.iq.FU_type_1::SimdFloatReduceAdd            0      0.00%     79.71% # Type of FU issued
system.cpu.iq.FU_type_1::SimdFloatReduceCmp            0      0.00%     79.71% # Type of FU issued
system.cpu.iq.FU_type_1::SimdAes                    0      0.00%     79.71% # Type of FU issued
system.cpu.iq.FU_type_1::SimdAesMix                 0      0.00%     79.71% # Type of FU issued
system.cpu.iq.FU_type_1::SimdSha1Hash               0      0.00%     79.71% # Type of FU issued
system.cpu.iq.FU_type_1::SimdSha1Hash2              0      0.00%     79.71% # Type of FU issued
system.cpu.iq.FU_type_1::SimdSha256Hash             0      0.00%     79.71% # Type of FU issued
system.cpu.iq.FU_type_1::SimdSha256Hash2            0      0.00%     79.71% # Type of FU issued
system.cpu.iq.FU_type_1::SimdShaSigma2              0      0.00%     79.71% # Type of FU issued
system.cpu.iq.FU_type_1::SimdShaSigma3              0      0.00%     79.71% # Type of FU issued
system.cpu.iq.FU_type_1::SimdPredAlu                0      0.00%     79.71% # Type of FU issued
system.cpu.iq.FU_type_1::MemRead               119440     13.90%     93.60% # Type of FU issued
system.cpu.iq.FU_type_1::MemWrite               36611      4.26%     97.86% # Type of FU issued
system.cpu.iq.FU_type_1::FloatMemRead           11487      1.34%     99.20% # Type of FU issued
system.cpu.iq.FU_type_1::FloatMemWrite           6879      0.80%    100.00% # Type of FU issued
system.cpu.iq.FU_type_1::IprAccess                  0      0.00%    100.00% # Type of FU issued
system.cpu.iq.FU_type_1::InstPrefetch               0      0.00%    100.00% # Type of FU issued
system.cpu.iq.FU_type_1::total                 859586                       # Type of FU issued
system.cpu.iq.FU_type::total                  1715858      0.00%      0.00% # Type of FU issued
system.cpu.iq.fp_alu_accesses                   93167                       # Number of floating point alu accesses
system.cpu.iq.fp_inst_queue_reads              174740                       # Number of floating instruction queue reads
system.cpu.iq.fp_inst_queue_wakeup_accesses        71025                       # Number of floating instruction queue wakeup accesses
system.cpu.iq.fp_inst_queue_writes             136754                       # Number of floating instruction queue writes
system.cpu.iq.fu_busy_cnt::0                   172658                       # FU busy when requested
system.cpu.iq.fu_busy_cnt::1                   172429                       # FU busy when requested
system.cpu.iq.fu_busy_cnt::total               345087                       # FU busy when requested
system.cpu.iq.fu_busy_rate::0                0.100625                       # FU busy rate (busy events/executed inst)
system.cpu.iq.fu_busy_rate::1                0.100491                       # FU busy rate (busy events/executed inst)
system.cpu.iq.fu_busy_rate::total            0.201116                       # FU busy rate (busy events/executed inst)
system.cpu.iq.fu_full::No_OpClass                   0      0.00%      0.00% # attempts to use FU when none available
system.cpu.iq.fu_full::IntAlu                  154559     44.79%     44.79% # attempts to use FU when none available
system.cpu.iq.fu_full::IntMult                     70      0.02%     44.81% # attempts to use FU when none available
system.cpu.iq.fu_full::IntDiv                   10042      2.91%     47.72% # attempts to use FU when none available
system.cpu.iq.fu_full::FloatAdd                   907      0.26%     47.98% # attempts to use FU when none available
system.cpu.iq.fu_full::FloatCmp                     0      0.00%     47.98% # attempts to use FU when none available
system.cpu.iq.fu_full::FloatCvt                   266      0.08%     48.06% # attempts to use FU when none available
system.cpu.iq.fu_full::FloatMult                    0      0.00%     48.06% # attempts to use FU when none available
system.cpu.iq.fu_full::FloatMultAcc                 0      0.00%     48.06% # attempts to use FU when none available
system.cpu.iq.fu_full::FloatDiv                     0      0.00%     48.06% # attempts to use FU when none available
system.cpu.iq.fu_full::FloatMisc                    0      0.00%     48.06% # attempts to use FU when none available
system.cpu.iq.fu_full::FloatSqrt                    0      0.00%     48.06% # attempts to use FU when none available
system.cpu.iq.fu_full::SimdAdd                    546      0.16%     48.22% # attempts to use FU when none available
system.cpu.iq.fu_full::SimdAddAcc                   0      0.00%     48.22% # attempts to use FU when none available
system.cpu.iq.fu_full::SimdAlu                   1679      0.49%     48.70% # attempts to use FU when none available
system.cpu.iq.fu_full::SimdCmp                      0      0.00%     48.70% # attempts to use FU when none available
system.cpu.iq.fu_full::SimdCvt                   1613      0.47%     49.17% # attempts to use FU when none available
system.cpu.iq.fu_full::SimdMisc                   912      0.26%     49.44% # attempts to use FU when none available
system.cpu.iq.fu_full::SimdMult                     0      0.00%     49.44% # attempts to use FU when none available
system.cpu.iq.fu_full::SimdMultAcc                  0      0.00%     49.44% # attempts to use FU when none available
system.cpu.iq.fu_full::SimdShift                  583      0.17%     49.60% # attempts to use FU when none available
system.cpu.iq.fu_full::SimdShiftAcc                 0      0.00%     49.60% # attempts to use FU when none available
system.cpu.iq.fu_full::SimdDiv                      0      0.00%     49.60% # attempts to use FU when none available
system.cpu.iq.fu_full::SimdSqrt                     0      0.00%     49.60% # attempts to use FU when none available
system.cpu.iq.fu_full::SimdFloatAdd                 0      0.00%     49.60% # attempts to use FU when none available
system.cpu.iq.fu_full::SimdFloatAlu                 0      0.00%     49.60% # attempts to use FU when none available
system.cpu.iq.fu_full::SimdFloatCmp                 0      0.00%     49.60% # attempts to use FU when none available
system.cpu.iq.fu_full::SimdFloatCvt                 0      0.00%     49.60% # attempts to use FU when none available
system.cpu.iq.fu_full::SimdFloatDiv                 0      0.00%     49.60% # attempts to use FU when none available
system.cpu.iq.fu_full::SimdFloatMisc                0      0.00%     49.60% # attempts to use FU when none available
system.cpu.iq.fu_full::SimdFloatMult                0      0.00%     49.60% # attempts to use FU when none available
system.cpu.iq.fu_full::SimdFloatMultAcc             0      0.00%     49.60% # attempts to use FU when none available
system.cpu.iq.fu_full::SimdFloatSqrt                0      0.00%     49.60% # attempts to use FU when none available
system.cpu.iq.fu_full::SimdReduceAdd                0      0.00%     49.60% # attempts to use FU when none available
system.cpu.iq.fu_full::SimdReduceAlu                0      0.00%     49.60% # attempts to use FU when none available
system.cpu.iq.fu_full::SimdReduceCmp                0      0.00%     49.60% # attempts to use FU when none available
system.cpu.iq.fu_full::SimdFloatReduceAdd            0      0.00%     49.60% # attempts to use FU when none available
system.cpu.iq.fu_full::SimdFloatReduceCmp            0      0.00%     49.60% # attempts to use FU when none available
system.cpu.iq.fu_full::SimdAes                      0      0.00%     49.60% # attempts to use FU when none available
system.cpu.iq.fu_full::SimdAesMix                   0      0.00%     49.60% # attempts to use FU when none available
system.cpu.iq.fu_full::SimdSha1Hash                 0      0.00%     49.60% # attempts to use FU when none available
system.cpu.iq.fu_full::SimdSha1Hash2                0      0.00%     49.60% # attempts to use FU when none available
system.cpu.iq.fu_full::SimdSha256Hash               0      0.00%     49.60% # attempts to use FU when none available
system.cpu.iq.fu_full::SimdSha256Hash2              0      0.00%     49.60% # attempts to use FU when none available
system.cpu.iq.fu_full::SimdShaSigma2                0      0.00%     49.60% # attempts to use FU when none available
system.cpu.iq.fu_full::SimdShaSigma3                0      0.00%     49.60% # attempts to use FU when none available
system.cpu.iq.fu_full::SimdPredAlu                  0      0.00%     49.60% # attempts to use FU when none available
system.cpu.iq.fu_full::MemRead                 142667     41.34%     90.95% # attempts to use FU when none available
system.cpu.iq.fu_full::MemWrite                 31243      9.05%    100.00% # attempts to use FU when none available
system.cpu.iq.fu_full::FloatMemRead                 0      0.00%    100.00% # attempts to use FU when none available
system.cpu.iq.fu_full::FloatMemWrite                0      0.00%    100.00% # attempts to use FU when none available
system.cpu.iq.fu_full::IprAccess                    0      0.00%    100.00% # attempts to use FU when none available
system.cpu.iq.fu_full::InstPrefetch                 0      0.00%    100.00% # attempts to use FU when none available
system.cpu.iq.int_alu_accesses                2287139                       # Number of integer alu accesses
system.cpu.iq.int_inst_queue_reads            4987101                       # Number of integer instruction queue reads
system.cpu.iq.int_inst_queue_wakeup_accesses      1569454                       # Number of integer instruction queue wakeup accesses
system.cpu.iq.int_inst_queue_writes           2357764                       # Number of integer instruction queue writes
system.cpu.iq.iqInstsAdded                    1874492                       # Number of instructions added to the IQ (excludes non-spec)
system.cpu.iq.iqInstsIssued                   1715858                       # Number of instructions issued
system.cpu.iq.iqNonSpecInstsAdded                 765                       # Number of non-speculative instructions added to the IQ
system.cpu.iq.iqSquashedInstsExamined          619144                       # Number of squashed instructions iterated over during squash; mainly for profiling
system.cpu.iq.iqSquashedInstsIssued             16262                       # Number of squashed instructions issued
system.cpu.iq.iqSquashedNonSpecRemoved             68                       # Number of squashed non-spec instructions that were removed
system.cpu.iq.iqSquashedOperandsExamined       775615                       # Number of squashed operands that are examined and possibly removed from graph
system.cpu.iq.issued_per_cycle::samples       1024636                       # Number of insts issued each cycle
system.cpu.iq.issued_per_cycle::mean         1.674602                       # Number of insts issued each cycle
system.cpu.iq.issued_per_cycle::stdev        1.939041                       # Number of insts issued each cycle
system.cpu.iq.issued_per_cycle::underflows            0      0.00%      0.00% # Number of insts issued each cycle
system.cpu.iq.issued_per_cycle::0              493346     48.15%     48.15% # Number of insts issued each cycle
system.cpu.iq.issued_per_cycle::1               91679      8.95%     57.10% # Number of insts issued each cycle
system.cpu.iq.issued_per_cycle::2               90617      8.84%     65.94% # Number of insts issued each cycle
system.cpu.iq.issued_per_cycle::3               97034      9.47%     75.41% # Number of insts issued each cycle
system.cpu.iq.issued_per_cycle::4              136295     13.30%     88.71% # Number of insts issued each cycle
system.cpu.iq.issued_per_cycle::5               93261      9.10%     97.81% # Number of insts issued each cycle
system.cpu.iq.issued_per_cycle::6               17720      1.73%     99.54% # Number of insts issued each cycle
system.cpu.iq.issued_per_cycle::7                3434      0.34%     99.88% # Number of insts issued each cycle
system.cpu.iq.issued_per_cycle::8                1250      0.12%    100.00% # Number of insts issued each cycle
system.cpu.iq.issued_per_cycle::overflows            0      0.00%    100.00% # Number of insts issued each cycle
system.cpu.iq.issued_per_cycle::min_value            0                       # Number of insts issued each cycle
system.cpu.iq.issued_per_cycle::max_value            8                       # Number of insts issued each cycle
system.cpu.iq.issued_per_cycle::total         1024636                       # Number of insts issued each cycle
system.cpu.iq.rate                           1.558811                       # Inst issue rate
system.cpu.iq.vec_alu_accesses                      0                       # Number of vector alu accesses
system.cpu.iq.vec_inst_queue_reads                  0                       # Number of vector instruction queue reads
system.cpu.iq.vec_inst_queue_wakeup_accesses            0                       # Number of vector instruction queue wakeup accesses
system.cpu.iq.vec_inst_queue_writes                 0                       # Number of vector instruction queue writes
system.cpu.memDep0.conflictingLoads              1834                       # Number of conflicting loads.
system.cpu.memDep0.conflictingStores             2017                       # Number of conflicting stores.
system.cpu.memDep0.insertedLoads               124528                       # Number of loads inserted to the mem dependence unit.
system.cpu.memDep0.insertedStores               47314                       # Number of stores inserted to the mem dependence unit.
system.cpu.memDep1.conflictingLoads              1649                       # Number of conflicting loads.
system.cpu.memDep1.conflictingStores             1373                       # Number of conflicting stores.
system.cpu.memDep1.insertedLoads               125217                       # Number of loads inserted to the mem dependence unit.
system.cpu.memDep1.insertedStores               47667                       # Number of stores inserted to the mem dependence unit.
system.cpu.misc_regfile_reads                  702209                       # number of misc regfile reads
system.cpu.misc_regfile_writes                    540                       # number of misc regfile writes
system.cpu.numCycles                          1100748                       # number of cpu cycles simulated
system.cpu.numWorkItemsCompleted                    0                       # number of work items this cpu completed
system.cpu.numWorkItemsStarted                      0                       # number of work items this cpu started
system.cpu.timesIdled                            1563                       # Number of times that the entire CPU went into an idle state and unscheduled itself
system.cpu.workload0.numSyscalls                  104                       # Number of system calls
system.cpu.workload1.numSyscalls                  104                       # Number of system calls
system.membus.snoop_filter.hit_multi_requests            0                       # Number of requests hitting in the snoop filter with multiple (>1) holders of the requested data.
system.membus.snoop_filter.hit_multi_snoops            0                       # Number of snoops hitting in the snoop filter with multiple (>1) holders of the requested data.
system.membus.snoop_filter.hit_single_requests            0                       # Number of requests hitting in the snoop filter with a single holder of the requested data.
system.membus.snoop_filter.hit_single_snoops            0                       # Number of snoops hitting in the snoop filter with a single holder of the requested data.
system.membus.snoop_filter.tot_requests         11755                       # Total number of requests made to the snoop filter.
system.membus.snoop_filter.tot_snoops               0                       # Total number of snoops made to the snoop filter.
system.tol2bus.snoop_filter.hit_multi_requests           35                       # Number of requests hitting in the snoop filter with multiple (>1) holders of the requested data.
system.tol2bus.snoop_filter.hit_multi_snoops            0                       # Number of snoops hitting in the snoop filter with multiple (>1) holders of the requested data.
system.tol2bus.snoop_filter.hit_single_requests        25086                       # Number of requests hitting in the snoop filter with a single holder of the requested data.
system.tol2bus.snoop_filter.hit_single_snoops            0                       # Number of snoops hitting in the snoop filter with a single holder of the requested data.
system.tol2bus.snoop_filter.tot_requests        50939                       # Total number of requests made to the snoop filter.
system.tol2bus.snoop_filter.tot_snoops              0                       # Total number of snoops made to the snoop filter.
sim_insts                                      665132                       # Number of instructions simulated
sim_ops                                       1256092                       # Number of ops (including micro ops) simulated
host_inst_rate                                 135217                       # Simulator instruction rate (inst/s)
host_op_rate                                   255355                       # Simulator op (including micro ops) rate (op/s)
system.clk_domain.clock                          1000                       # Clock period in ticks
system.cpu.branchPred.lookups                  257413                       # Number of BP lookups
system.cpu.branchPred.condPredicted            209147                       # Number of conditional branches predicted
system.cpu.branchPred.condIncorrect             22684                       # Number of conditional branches incorrect
system.cpu.branchPred.BTBLookups                88115                       # Number of BTB lookups
system.cpu.branchPred.BTBHits                   77189                       # Number of BTB hits
system.cpu.branchPred.BTBHitPct             87.600295                       # BTB Hit Percentage
system.cpu.branchPred.RASUsed                    8579                       # Number of times the RAS was used to get a target.
system.cpu.branchPred.RASIncorrect                 41                       # Number of incorrect RAS predictions.
system.cpu.branchPred.indirectLookups            6583                       # Number of indirect predictor lookups.
system.cpu.branchPred.indirectHits               1459                       # Number of indirect target hits.
system.cpu.branchPred.indirectMisses             5124                       # Number of indirect misses.
system.cpu.branchPred.indirectMispredicted         1480                       # Number of mispredicted indirect branches.
system.cpu.branchPred.power_state.pwrStateResidencyTicks::UNDEFINED    550373500                       # Cumulative time (in ticks) in various power states
system.cpu.commit.commitSquashedInsts          582290                       # The number of squashed insts skipped by commit
system.cpu.commit.commitNonSpecStalls             696                       # The number of times commit has been forced to stall to communicate backwards
system.cpu.commit.branchMispredicts             18857                       # The number of times a branch was mispredicted
system.cpu.commit.numCommittedDist::samples      1020932                       # Number of insts commited each cycle
system.cpu.commit.numCommittedDist::mean     1.230339                       # Number of insts commited each cycle
system.cpu.commit.numCommittedDist::stdev     2.385593                       # Number of insts commited each cycle
system.cpu.commit.numCommittedDist::underflows            0      0.00%      0.00% # Number of insts commited each cycle
system.cpu.commit.numCommittedDist::0          702627     68.82%     68.82% # Number of insts commited each cycle
system.cpu.commit.numCommittedDist::1           85062      8.33%     77.15% # Number of insts commited each cycle
system.cpu.commit.numCommittedDist::2           47259      4.63%     81.78% # Number of insts commited each cycle
system.cpu.commit.numCommittedDist::3           46503      4.55%     86.34% # Number of insts commited each cycle
system.cpu.commit.numCommittedDist::4           25475      2.50%     88.83% # Number of insts commited each cycle
system.cpu.commit.numCommittedDist::5           15138      1.48%     90.32% # Number of insts commited each cycle
system.cpu.commit.numCommittedDist::6           11165      1.09%     91.41% # Number of insts commited each cycle
system.cpu.commit.numCommittedDist::7            9201      0.90%     92.31% # Number of insts commited each cycle
system.cpu.commit.numCommittedDist::8           78502      7.69%    100.00% # Number of insts commited each cycle
system.cpu.commit.numCommittedDist::overflows            0      0.00%    100.00% # Number of insts commited each cycle
system.cpu.commit.numCommittedDist::min_value            0                       # Number of insts commited each cycle
system.cpu.commit.numCommittedDist::max_value            8                       # Number of insts commited each cycle
system.cpu.commit.numCommittedDist::total      1020932                       # Number of insts commited each cycle
system.cpu.commit.instsCommitted::0            332566                       # Number of instructions committed
system.cpu.commit.instsCommitted::1            332566                       # Number of instructions committed
system.cpu.commit.instsCommitted::total        665132                       # Number of instructions committed
system.cpu.commit.opsCommitted::0              628046                       # Number of ops (including micro ops) committed
system.cpu.commit.opsCommitted::1              628046                       # Number of ops (including micro ops) committed
system.cpu.commit.opsCommitted::total         1256092                       # Number of ops (including micro ops) committed
system.cpu.commit.memRefs::0                   116090                       # Number of memory references committed
system.cpu.commit.memRefs::1                   116090                       # Number of memory references committed
system.cpu.commit.memRefs::total               232180                       # Number of memory references committed
system.cpu.commit.loads::0                      83536                       # Number of loads committed
system.cpu.commit.loads::1                      83536                       # Number of loads committed
system.cpu.commit.loads::total                 167072                       # Number of loads committed
system.cpu.commit.amos::0                           0                       # Number of atomic instructions committed
system.cpu.commit.amos::1                           0                       # Number of atomic instructions committed
system.cpu.commit.amos::total                       0                       # Number of atomic instructions committed
system.cpu.commit.membars::0                       52                       # Number of memory barriers committed
system.cpu.commit.membars::1                       52                       # Number of memory barriers committed
system.cpu.commit.membars::total                  104                       # Number of memory barriers committed
system.cpu.commit.branches::0                   70663                       # Number of branches committed
system.cpu.commit.branches::1                   70663                       # Number of branches committed
system.cpu.commit.branches::total              141326                       # Number of branches committed
system.cpu.commit.vector::0                         0                       # Number of committed Vector instructions.
system.cpu.commit.vector::1                         0                       # Number of committed Vector instructions.
system.cpu.commit.vector::total                     0                       # Number of committed Vector instructions.
system.cpu.commit.floating::0                   26194                       # Number of committed floating point instructions.
system.cpu.commit.floating::1                   26194                       # Number of committed floating point instructions.
system.cpu.commit.floating::total               52388                       # Number of committed floating point instructions.
system.cpu.commit.integer::0                   609276                       # Number of committed integer instructions.
system.cpu.commit.integer::1                   609276                       # Number of committed integer instructions.
system.cpu.commit.integer::total              1218552                       # Number of committed integer instructions.
system.cpu.commit.functionCalls::0               2470                       # Number of function calls committed.
system.cpu.commit.functionCalls::1               2470                       # Number of function calls committed.
system.cpu.commit.functionCalls::total           4940                       # Number of function calls committed.
system.cpu.commit.committedInstType_0::No_OpClass         6845      1.09%      1.09% # Class of committed instruction
system.cpu.commit.committedInstType_0::IntAlu       487874     77.68%     78.77% # Class of committed instruction
system.cpu.commit.committedInstType_0::IntMult           58      0.01%     78.78% # Class of committed instruction
system.cpu.commit.committedInstType_0::IntDiv         2792      0.44%     79.22% # Class of committed instruction
system.cpu.commit.committedInstType_0::FloatAdd          992      0.16%     79.38% # Class of committed instruction
system.cpu.commit.committedInstType_0::FloatCmp            0      0.00%     79.38% # Class of committed instruction
system.cpu.commit.committedInstType_0::FloatCvt          480      0.08%     79.46% # Class of committed instruction
system.cpu.commit.committedInstType_0::FloatMult            0      0.00%     79.46% # Class of committed instruction
system.cpu.commit.committedInstType_0::FloatMultAcc            0      0.00%     79.46% # Class of committed instruction
system.cpu.commit.committedInstType_0::FloatDiv            0      0.00%     79.46% # Class of committed instruction
system.cpu.commit.committedInstType_0::FloatMisc            0      0.00%     79.46% # Class of committed instruction
system.cpu.commit.committedInstType_0::FloatSqrt            0      0.00%     79.46% # Class of committed instruction
system.cpu.commit.committedInstType_0::SimdAdd         1788      0.28%     79.74% # Class of committed instruction
system.cpu.commit.committedInstType_0::SimdAddAcc            0      0.00%     79.74% # Class of committed instruction
system.cpu.commit.committedInstType_0::SimdAlu         3133      0.50%     80.24% # Class of committed instruction
system.cpu.commit.committedInstType_0::SimdCmp            6      0.00%     80.24% # Class of committed instruction
system.cpu.commit.committedInstType_0::SimdCvt         3990      0.64%     80.88% # Class of committed instruction
system.cpu.commit.committedInstType_0::SimdMisc         3131      0.50%     81.38% # Class of committed instruction
system.cpu.commit.committedInstType_0::SimdMult            0      0.00%     81.38% # Class of committed instruction
system.cpu.commit.committedInstType_0::SimdMultAcc            0      0.00%     81.38% # Class of committed instruction
system.cpu.commit.committedInstType_0::SimdShift          867      0.14%     81.52% # Class of committed instruction
system.cpu.commit.committedInstType_0::SimdShiftAcc            0      0.00%     81.52% # Class of committed instruction
system.cpu.commit.committedInstType_0::SimdDiv            0      0.00%     81.52% # Class of committed instruction
system.cpu.commit.committedInstType_0::SimdSqrt            0      0.00%     81.52% # Class of committed instruction
system.cpu.commit.committedInstType_0::SimdFloatAdd            0      0.00%     81.52% # Class of committed instruction
system.cpu.commit.committedInstType_0::SimdFloatAlu            0      0.00%     81.52% # Class of committed instruction
system.cpu.commit.committedInstType_0::SimdFloatCmp            0      0.00%     81.52% # Class of committed instruction
system.cpu.commit.committedInstType_0::SimdFloatCvt            0      0.00%     81.52% # Class of committed instruction
system.cpu.commit.committedInstType_0::SimdFloatDiv            0      0.00%     81.52% # Class of committed instruction
system.cpu.commit.committedInstType_0::SimdFloatMisc            0      0.00%     81.52% # Class of committed instruction
system.cpu.commit.committedInstType_0::SimdFloatMult            0      0.00%     81.52% # Class of committed instruction
system.cpu.commit.committedInstType_0::SimdFloatMultAcc            0      0.00%     81.52% # Class of committed instruction
system.cpu.commit.committedInstType_0::SimdFloatSqrt            0      0.00%     81.52% # Class of committed instruction
system.cpu.commit.committedInstType_0::SimdReduceAdd            0      0.00%     81.52% # Class of committed instruction
system.cpu.commit.committedInstType_0::SimdReduceAlu            0      0.00%     81.52% # Class of committed instruction
system.cpu.commit.committedInstType_0::SimdReduceCmp            0      0.00%     81.52% # Class of committed instruction
system.cpu.commit.committedInstType_0::SimdFloatReduceAdd            0      0.00%     81.52% # Class of committed instruction
system.cpu.commit.committedInstType_0::SimdFloatReduceCmp            0      0.00%     81.52% # Class of committed instruction
system.cpu.commit.committedInstType_0::SimdAes            0      0.00%     81.52% # Class of committed instruction
system.cpu.commit.committedInstType_0::SimdAesMix            0      0.00%     81.52% # Class of committed instruction
system.cpu.commit.committedInstType_0::SimdSha1Hash            0      0.00%     81.52% # Class of committed instruction
system.cpu.commit.committedInstType_0::SimdSha1Hash2            0      0.00%     81.52% # Class of committed instruction
system.cpu.commit.committedInstType_0::SimdSha256Hash            0      0.00%     81.52% # Class of committed instruction
system.cpu.commit.committedInstType_0::SimdSha256Hash2            0      0.00%     81.52% # Class of committed instruction
system.cpu.commit.committedInstType_0::SimdShaSigma2            0      0.00%     81.52% # Class of committed instruction
system.cpu.commit.committedInstType_0::SimdShaSigma3            0      0.00%     81.52% # Class of committed instruction
system.cpu.commit.committedInstType_0::SimdPredAlu            0      0.00%     81.52% # Class of committed instruction
system.cpu.commit.committedInstType_0::MemRead        77795     12.39%     93.90% # Class of committed instruction
system.cpu.commit.committedInstType_0::MemWrite        27200      4.33%     98.23% # Class of committed instruction
system.cpu.commit.committedInstType_0::FloatMemRead         5741      0.91%     99.15% # Class of committed instruction
system.cpu.commit.committedInstType_0::FloatMemWrite         5354      0.85%    100.00% # Class of committed instruction
system.cpu.commit.committedInstType_0::IprAccess            0      0.00%    100.00% # Class of committed instruction
system.cpu.commit.committedInstType_0::InstPrefetch            0      0.00%    100.00% # Class of committed instruction
system.cpu.commit.committedInstType_0::total       628046                       # Class of committed instruction
system.cpu.commit.committedInstType_1::No_OpClass         6845      1.09%      1.09% # Class of committed instruction
system.cpu.commit.committedInstType_1::IntAlu       487874     77.68%     78.77% # Class of committed instruction
system.cpu.commit.committedInstType_1::IntMult           58      0.01%     78.78% # Class of committed instruction
system.cpu.commit.committedInstType_1::IntDiv         2792      0.44%     79.22% # Class of committed instruction
system.cpu.commit.committedInstType_1::FloatAdd          992      0.16%     79.38% # Class of committed instruction
system.cpu.commit.committedInstType_1::FloatCmp            0      0.00%     79.38% # Class of committed instruction
system.cpu.commit.committedInstType_1::FloatCvt          480      0.08%     79.46% # Class of committed instruction
system.cpu.commit.committedInstType_1::FloatMult            0      0.00%     79.46% # Class of committed instruction
system.cpu.commit.committedInstType_1::FloatMultAcc            0      0.00%     79.46% # Class of committed instruction
system.cpu.commit.committedInstType_1::FloatDiv            0      0.00%     79.46% # Class of committed instruction
system.cpu.commit.committedInstType_1::FloatMisc            0      0.00%     79.46% # Class of committed instruction
system.cpu.commit.committedInstType_1::FloatSqrt            0      0.00%     79.46% # Class of committed instruction
system.cpu.commit.committedInstType_1::SimdAdd         1788      0.28%     79.74% # Class of committed instruction
system.cpu.commit.committedInstType_1::SimdAddAcc            0      0.00%     79.74% # Class of committed instruction
system.cpu.commit.committedInstType_1::SimdAlu         3133      0.50%     80.24% # Class of committed instruction
system.cpu.commit.committedInstType_1::SimdCmp            6      0.00%     80.24% # Class of committed instruction
system.cpu.commit.committedInstType_1::SimdCvt         3990      0.64%     80.88% # Class of committed instruction
system.cpu.commit.committedInstType_1::SimdMisc         3131      0.50%     81.38% # Class of committed instruction
system.cpu.commit.committedInstType_1::SimdMult            0      0.00%     81.38% # Class of committed instruction
system.cpu.commit.committedInstType_1::SimdMultAcc            0      0.00%     81.38% # Class of committed instruction
system.cpu.commit.committedInstType_1::SimdShift          867      0.14%     81.52% # Class of committed instruction
system.cpu.commit.committedInstType_1::SimdShiftAcc            0      0.00%     81.52% # Class of committed instruction
system.cpu.commit.committedInstType_1::SimdDiv            0      0.00%     81.52% # Class of committed instruction
system.cpu.commit.committedInstType_1::SimdSqrt            0      0.00%     81.52% # Class of committed instruction
system.cpu.commit.committedInstType_1::SimdFloatAdd            0      0.00%     81.52% # Class of committed instruction
system.cpu.commit.committedInstType_1::SimdFloatAlu            0      0.00%     81.52% # Class of committed instruction
system.cpu.commit.committedInstType_1::SimdFloatCmp            0      0.00%     81.52% # Class of committed instruction
system.cpu.commit.committedInstType_1::SimdFloatCvt            0      0.00%     81.52% # Class of committed instruction
system.cpu.commit.committedInstType_1::SimdFloatDiv            0      0.00%     81.52% # Class of committed instruction
system.cpu.commit.committedInstType_1::SimdFloatMisc            0      0.00%     81.52% # Class of committed instruction
system.cpu.commit.committedInstType_1::SimdFloatMult            0      0.00%     81.52% # Class of committed instruction
system.cpu.commit.committedInstType_1::SimdFloatMultAcc            0      0.00%     81.52% # Class of committed instruction
system.cpu.commit.committedInstType_1::SimdFloatSqrt            0      0.00%     81.52% # Class of committed instruction
system.cpu.commit.committedInstType_1::SimdReduceAdd            0      0.00%     81.52% # Class of committed instruction
system.cpu.commit.committedInstType_1::SimdReduceAlu            0      0.00%     81.52% # Class of committed instruction
system.cpu.commit.committedInstType_1::SimdReduceCmp            0      0.00%     81.52% # Class of committed instruction
system.cpu.commit.committedInstType_1::SimdFloatReduceAdd            0      0.00%     81.52% # Class of committed instruction
system.cpu.commit.committedInstType_1::SimdFloatReduceCmp            0      0.00%     81.52% # Class of committed instruction
system.cpu.commit.committedInstType_1::SimdAes            0      0.00%     81.52% # Class of committed instruction
system.cpu.commit.committedInstType_1::SimdAesMix            0      0.00%     81.52% # Class of committed instruction
system.cpu.commit.committedInstType_1::SimdSha1Hash            0      0.00%     81.52% # Class of committed instruction
system.cpu.commit.committedInstType_1::SimdSha1Hash2            0      0.00%     81.52% # Class of committed instruction
system.cpu.commit.committedInstType_1::SimdSha256Hash            0      0.00%     81.52% # Class of committed instruction
system.cpu.commit.committedInstType_1::SimdSha256Hash2            0      0.00%     81.52% # Class of committed instruction
system.cpu.commit.committedInstType_1::SimdShaSigma2            0      0.00%     81.52% # Class of committed instruction
system.cpu.commit.committedInstType_1::SimdShaSigma3            0      0.00%     81.52% # Class of committed instruction
system.cpu.commit.committedInstType_1::SimdPredAlu            0      0.00%     81.52% # Class of committed instruction
system.cpu.commit.committedInstType_1::MemRead        77795     12.39%     93.90% # Class of committed instruction
system.cpu.commit.committedInstType_1::MemWrite        27200      4.33%     98.23% # Class of committed instruction
system.cpu.commit.committedInstType_1::FloatMemRead         5741      0.91%     99.15% # Class of committed instruction
system.cpu.commit.committedInstType_1::FloatMemWrite         5354      0.85%    100.00% # Class of committed instruction
system.cpu.commit.committedInstType_1::IprAccess            0      0.00%    100.00% # Class of committed instruction
system.cpu.commit.committedInstType_1::InstPrefetch            0      0.00%    100.00% # Class of committed instruction
system.cpu.commit.committedInstType_1::total       628046                       # Class of committed instruction
system.cpu.commit.committedInstType::total      1256092      0.00%      0.00% # Class of committed instruction
system.cpu.commit.commitEligibleSamples         78502                       # number cycles where commit BW limit reached
system.cpu.dcache.demand_hits::.cpu.data       227372                       # number of demand (read+write) hits
system.cpu.dcache.demand_hits::total           227372                       # number of demand (read+write) hits
system.cpu.dcache.overall_hits::.cpu.data       227372                       # number of overall hits
system.cpu.dcache.overall_hits::total          227372                       # number of overall hits
system.cpu.dcache.demand_misses::.cpu.data        48283                       # number of demand (read+write) misses
system.cpu.dcache.demand_misses::total          48283                       # number of demand (read+write) misses
system.cpu.dcache.overall_misses::.cpu.data        48283                       # number of overall misses
system.cpu.dcache.overall_misses::total         48283                       # number of overall misses
system.cpu.dcache.demand_miss_latency::.cpu.data   2051223871                       # number of demand (read+write) miss cycles
system.cpu.dcache.demand_miss_latency::total   2051223871                       # number of demand (read+write) miss cycles
system.cpu.dcache.overall_miss_latency::.cpu.data   2051223871                       # number of overall miss cycles
system.cpu.dcache.overall_miss_latency::total   2051223871                       # number of overall miss cycles
system.cpu.dcache.demand_accesses::.cpu.data       275655                       # number of demand (read+write) accesses
system.cpu.dcache.demand_accesses::total       275655                       # number of demand (read+write) accesses
system.cpu.dcache.overall_accesses::.cpu.data       275655                       # number of overall (read+write) accesses
system.cpu.dcache.overall_accesses::total       275655                       # number of overall (read+write) accesses
system.cpu.dcache.demand_miss_rate::.cpu.data     0.175157                       # miss rate for demand accesses
system.cpu.dcache.demand_miss_rate::total     0.175157                       # miss rate for demand accesses
system.cpu.dcache.overall_miss_rate::.cpu.data     0.175157                       # miss rate for overall accesses
system.cpu.dcache.overall_miss_rate::total     0.175157                       # miss rate for overall accesses
system.cpu.dcache.demand_avg_miss_latency::.cpu.data 42483.355860                       # average overall miss latency
system.cpu.dcache.demand_avg_miss_latency::total 42483.355860                       # average overall miss latency
system.cpu.dcache.overall_avg_miss_latency::.cpu.data 42483.355860                       # average overall miss latency
system.cpu.dcache.overall_avg_miss_latency::total 42483.355860                       # average overall miss latency
system.cpu.dcache.blocked_cycles::no_mshrs            0                       # number of cycles access was blocked
system.cpu.dcache.blocked_cycles::no_targets        97302                       # number of cycles access was blocked
system.cpu.dcache.blocked::no_mshrs                 0                       # number of cycles access was blocked
system.cpu.dcache.blocked::no_targets            1129                       # number of cycles access was blocked
system.cpu.dcache.avg_blocked_cycles::no_mshrs          nan                       # average number of cycles each access was blocked
system.cpu.dcache.avg_blocked_cycles::no_targets    86.184234                       # average number of cycles each access was blocked
system.cpu.dcache.writebacks::.writebacks        20160                       # number of writebacks
system.cpu.dcache.writebacks::total             20160                       # number of writebacks
system.cpu.dcache.demand_mshr_hits::.cpu.data        27870                       # number of demand (read+write) MSHR hits
system.cpu.dcache.demand_mshr_hits::total        27870                       # number of demand (read+write) MSHR hits
system.cpu.dcache.overall_mshr_hits::.cpu.data        27870                       # number of overall MSHR hits
system.cpu.dcache.overall_mshr_hits::total        27870                       # number of overall MSHR hits
system.cpu.dcache.demand_mshr_misses::.cpu.data        20413                       # number of demand (read+write) MSHR misses
system.cpu.dcache.demand_mshr_misses::total        20413                       # number of demand (read+write) MSHR misses
system.cpu.dcache.overall_mshr_misses::.cpu.data        20413                       # number of overall MSHR misses
system.cpu.dcache.overall_mshr_misses::total        20413                       # number of overall MSHR misses
system.cpu.dcache.demand_mshr_miss_latency::.cpu.data    722453871                       # number of demand (read+write) MSHR miss cycles
system.cpu.dcache.demand_mshr_miss_latency::total    722453871                       # number of demand (read+write) MSHR miss cycles
system.cpu.dcache.overall_mshr_miss_latency::.cpu.data    722453871                       # number of overall MSHR miss cycles
system.cpu.dcache.overall_mshr_miss_latency::total    722453871                       # number of overall MSHR miss cycles
system.cpu.dcache.demand_mshr_miss_rate::.cpu.data     0.074053                       # mshr miss rate for demand accesses
system.cpu.dcache.demand_mshr_miss_rate::total     0.074053                       # mshr miss rate for demand accesses
system.cpu.dcache.overall_mshr_miss_rate::.cpu.data     0.074053                       # mshr miss rate for overall accesses
system.cpu.dcache.overall_mshr_miss_rate::total     0.074053                       # mshr miss rate for overall accesses
system.cpu.dcache.demand_avg_mshr_miss_latency::.cpu.data 35391.851810                       # average overall mshr miss latency
system.cpu.dcache.demand_avg_mshr_miss_latency::total 35391.851810                       # average overall mshr miss latency
system.cpu.dcache.overall_avg_mshr_miss_latency::.cpu.data 35391.851810                       # average overall mshr miss latency
system.cpu.dcache.overall_avg_mshr_miss_latency::total 35391.851810                       # average overall mshr miss latency
system.cpu.dcache.replacements                    742                       # number of replacements
system.cpu.dcache.expired                       19418                       # dead blocks evicted
system.cpu.dcache.ReadReq_hits::.cpu.data       165619                       # number of ReadReq hits
system.cpu.dcache.ReadReq_hits::total          165619                       # number of ReadReq hits
system.cpu.dcache.ReadReq_misses::.cpu.data        44912                       # number of ReadReq misses
system.cpu.dcache.ReadReq_misses::total         44912                       # number of ReadReq misses
system.cpu.dcache.ReadReq_miss_latency::.cpu.data   1884501500                       # number of ReadReq miss cycles
system.cpu.dcache.ReadReq_miss_latency::total   1884501500                       # number of ReadReq miss cycles
system.cpu.dcache.ReadReq_accesses::.cpu.data       210531                       # number of ReadReq accesses(hits+misses)
system.cpu.dcache.ReadReq_accesses::total       210531                       # number of ReadReq accesses(hits+misses)
system.cpu.dcache.ReadReq_miss_rate::.cpu.data     0.213327                       # miss rate for ReadReq accesses
system.cpu.dcache.ReadReq_miss_rate::total     0.213327                       # miss rate for ReadReq accesses
system.cpu.dcache.ReadReq_avg_miss_latency::.cpu.data 41959.865960                       # average ReadReq miss latency
system.cpu.dcache.ReadReq_avg_miss_latency::total 41959.865960                       # average ReadReq miss latency
system.cpu.dcache.ReadReq_mshr_hits::.cpu.data        27850                       # number of ReadReq MSHR hits
system.cpu.dcache.ReadReq_mshr_hits::total        27850                       # number of ReadReq MSHR hits
system.cpu.dcache.ReadReq_mshr_misses::.cpu.data        17062                       # number of ReadReq MSHR misses
system.cpu.dcache.ReadReq_mshr_misses::total        17062                       # number of ReadReq MSHR misses
system.cpu.dcache.ReadReq_mshr_miss_latency::.cpu.data    559603000                       # number of ReadReq MSHR miss cycles
system.cpu.dcache.ReadReq_mshr_miss_latency::total    559603000                       # number of ReadReq MSHR miss cycles
system.cpu.dcache.ReadReq_mshr_miss_rate::.cpu.data     0.081043                       # mshr miss rate for ReadReq accesses
system.cpu.dcache.ReadReq_mshr_miss_rate::total     0.081043                       # mshr miss rate for ReadReq accesses
system.cpu.dcache.ReadReq_avg_mshr_miss_latency::.cpu.data 32798.206541                       # average ReadReq mshr miss latency
system.cpu.dcache.ReadReq_avg_mshr_miss_latency::total 32798.206541                       # average ReadReq mshr miss latency
system.cpu.dcache.WriteReq_hits::.cpu.data        61753                       # number of WriteReq hits
system.cpu.dcache.WriteReq_hits::total          61753                       # number of WriteReq hits
system.cpu.dcache.WriteReq_misses::.cpu.data         3371                       # number of WriteReq misses
system.cpu.dcache.WriteReq_misses::total         3371                       # number of WriteReq misses
system.cpu.dcache.WriteReq_miss_latency::.cpu.data    166722371                       # number of WriteReq miss cycles
system.cpu.dcache.WriteReq_miss_latency::total    166722371                       # number of WriteReq miss cycles
system.cpu.dcache.WriteReq_accesses::.cpu.data        65124                       # number of WriteReq accesses(hits+misses)
system.cpu.dcache.WriteReq_accesses::total        65124                       # number of WriteReq accesses(hits+misses)
system.cpu.dcache.WriteReq_miss_rate::.cpu.data     0.051763                       # miss rate for WriteReq accesses
system.cpu.dcache.WriteReq_miss_rate::total     0.051763                       # miss rate for WriteReq accesses
system.cpu.dcache.WriteReq_avg_miss_latency::.cpu.data 49457.837734                       # average WriteReq miss latency
system.cpu.dcache.WriteReq_avg_miss_latency::total 49457.837734                       # average WriteReq miss latency
system.cpu.dcache.WriteReq_mshr_hits::.cpu.data           20                       # number of WriteReq MSHR hits
system.cpu.dcache.WriteReq_mshr_hits::total           20                       # number of WriteReq MSHR hits
system.cpu.dcache.WriteReq_mshr_misses::.cpu.data         3351                       # number of WriteReq MSHR misses
system.cpu.dcache.WriteReq_mshr_misses::total         3351                       # number of WriteReq MSHR misses
system.cpu.dcache.WriteReq_mshr_miss_latency::.cpu.data    162850871                       # number of WriteReq MSHR miss cycles
system.cpu.dcache.WriteReq_mshr_miss_latency::total    162850871                       # number of WriteReq MSHR miss cycles
system.cpu.dcache.WriteReq_mshr_miss_rate::.cpu.data     0.051456                       # mshr miss rate for WriteReq accesses
system.cpu.dcache.WriteReq_mshr_miss_rate::total     0.051456                       # mshr miss rate for WriteReq accesses
system.cpu.dcache.WriteReq_avg_mshr_miss_latency::.cpu.data 48597.693524                       # average WriteReq mshr miss latency
system.cpu.dcache.WriteReq_avg_mshr_miss_latency::total 48597.693524                       # average WriteReq mshr miss latency
system.cpu.dcache.power_state.pwrStateResidencyTicks::UNDEFINED    550373500                       # Cumulative time (in ticks) in various power states
system.cpu.dcache.tags.tagsinuse           209.811395                       # Cycle average of tags in use
system.cpu.dcache.tags.total_refs              247785                       # Total number of references to valid blocks.
system.cpu.dcache.tags.sampled_refs             20412                       # Sample count of references to valid blocks.
system.cpu.dcache.tags.avg_refs             12.139183                       # Average number of references to valid blocks.
system.cpu.dcache.tags.warmup_cycle            190500                       # Cycle when the warmup percentage was hit.
system.cpu.dcache.tags.occ_blocks::.cpu.data   209.811395                       # Average occupied blocks per requestor
system.cpu.dcache.tags.occ_percent::.cpu.data     0.409788                       # Average percentage of cache occupancy
system.cpu.dcache.tags.occ_percent::total     0.409788                       # Average percentage of cache occupancy
system.cpu.dcache.tags.occ_task_id_blocks::1024          252                       # Occupied blocks per task id
system.cpu.dcache.tags.age_task_id_blocks_1024::0          240                       # Occupied blocks per task id
system.cpu.dcache.tags.age_task_id_blocks_1024::1           12                       # Occupied blocks per task id
system.cpu.dcache.tags.occ_task_id_percent::1024     0.492188                       # Percentage of cache occupancy per task id
system.cpu.dcache.tags.tag_accesses           2225652                       # Number of tag accesses
system.cpu.dcache.tags.data_accesses          2225652                       # Number of data accesses
system.cpu.dcache.tags.power_state.pwrStateResidencyTicks::UNDEFINED    550373500                       # Cumulative time (in ticks) in various power states
system.cpu.decode.idleCycles                   535738                       # Number of cycles decode is idle
system.cpu.decode.blockedCycles                926915                       # Number of cycles decode is blocked
system.cpu.decode.runCycles                    500142                       # Number of cycles decode is running
system.cpu.decode.unblockCycles                 66868                       # Number of cycles decode is unblocking
system.cpu.decode.squashCycles                  19609                       # Number of cycles decode is squashing
system.cpu.decode.branchResolved                72561                       # Number of times decode resolved a  branch
system.cpu.decode.branchMispred                  4214                       # Number of times decode detected a branch misprediction
system.cpu.decode.decodedInsts                1974951                       # Number of instructions handled by decode
system.cpu.decode.squashedInsts                 90585                       # Number of squashed instructions handled by decode
system.cpu.dtb.rdAccesses                      221836                       # TLB accesses on read requests
system.cpu.dtb.wrAccesses                       83481                       # TLB accesses on write requests
system.cpu.dtb.rdMisses                         17907                       # TLB misses on read requests
system.cpu.dtb.wrMisses                          1142                       # TLB misses on write requests
system.cpu.dtb.walker.power_state.pwrStateResidencyTicks::UNDEFINED    550373500                       # Cumulative time (in ticks) in various power states
system.cpu.dtb_walker_cache.blocked_cycles::no_mshrs            0                       # number of cycles access was blocked
system.cpu.dtb_walker_cache.blocked_cycles::no_targets            0                       # number of cycles access was blocked
system.cpu.dtb_walker_cache.blocked::no_mshrs            0                       # number of cycles access was blocked
system.cpu.dtb_walker_cache.blocked::no_targets            0                       # number of cycles access was blocked
system.cpu.dtb_walker_cache.avg_blocked_cycles::no_mshrs          nan                       # average number of cycles each access was blocked
system.cpu.dtb_walker_cache.avg_blocked_cycles::no_targets          nan                       # average number of cycles each access was blocked
system.cpu.dtb_walker_cache.replacements            0                       # number of replacements
system.cpu.dtb_walker_cache.expired                 0                       # dead blocks evicted
system.cpu.dtb_walker_cache.power_state.pwrStateResidencyTicks::UNDEFINED    550373500                       # Cumulative time (in ticks) in various power states
system.cpu.dtb_walker_cache.tags.tagsinuse            0                       # Cycle average of tags in use
system.cpu.dtb_walker_cache.tags.total_refs            0                       # Total number of references to valid blocks.
system.cpu.dtb_walker_cache.tags.sampled_refs            0                       # Sample count of references to valid blocks.
system.cpu.dtb_walker_cache.tags.avg_refs          nan                       # Average number of references to valid blocks.
system.cpu.dtb_walker_cache.tags.warmup_cycle            0                       # Cycle when the warmup percentage was hit.
system.cpu.dtb_walker_cache.tags.tag_accesses            0                       # Number of tag accesses
system.cpu.dtb_walker_cache.tags.data_accesses            0                       # Number of data accesses
system.cpu.dtb_walker_cache.tags.power_state.pwrStateResidencyTicks::UNDEFINED    550373500                       # Cumulative time (in ticks) in various power states
system.cpu.fetch.icacheStallCycles              18751                       # Number of cycles fetch is stalled on an Icache miss
system.cpu.fetch.insts                        1203761                       # Number of instructions fetch has processed
system.cpu.fetch.branches                      257413                       # Number of branches that fetch encountered
system.cpu.fetch.predictedBranches              87227                       # Number of branches that fetch has predicted taken
system.cpu.fetch.cycles                        896670                       # Number of cycles fetch has run and was not squashing or blocked
system.cpu.fetch.squashCycles                   23733                       # Number of cycles fetch has spent squashing
system.cpu.fetch.tlbCycles                       1375                       # Number of cycles fetch has spent waiting for tlb
system.cpu.fetch.miscStallCycles                  174                       # Number of cycles fetch has spent waiting on interrupts,or bad addresses, or out of MSHRs
system.cpu.fetch.cacheLines                    371573                       # Number of cache lines fetched
system.cpu.fetch.icacheSquashes                  3253                       # Number of outstanding Icache misses that were squashed
system.cpu.fetch.tlbSquashes                      624                       # Number of outstanding ITLB misses that were squashed
system.cpu.fetch.SMTDist::samples             1024636                       # Number of Cycles each Thread Fetched
system.cpu.fetch.SMTDist::mean               0.345310                       # Number of Cycles each Thread Fetched
system.cpu.fetch.SMTDist::stdev              0.660474                       # Number of Cycles each Thread Fetched
system.cpu.fetch.SMTDist::underflows                0      0.00%      0.00% # Number of Cycles each Thread Fetched
system.cpu.fetch.SMTDist::-1                   107666     10.51%     10.51% # Number of Cycles each Thread Fetched
system.cpu.fetch.SMTDist::0                    455487     44.45%     54.96% # Number of Cycles each Thread Fetched
system.cpu.fetch.SMTDist::1                    461483     45.04%    100.00% # Number of Cycles each Thread Fetched
system.cpu.fetch.SMTDist::2                         0      0.00%    100.00% # Number of Cycles each Thread Fetched
system.cpu.fetch.SMTDist::overflows                 0      0.00%    100.00% # Number of Cycles each Thread Fetched
system.cpu.fetch.SMTDist::min_value                -1                       # Number of Cycles each Thread Fetched
system.cpu.fetch.SMTDist::max_value                 1                       # Number of Cycles each Thread Fetched
system.cpu.fetch.SMTDist::total               1024636                       # Number of Cycles each Thread Fetched
system.cpu.fetch.nisnDist::samples            1024636                       # Number of instructions fetched each cycle (Total)
system.cpu.fetch.nisnDist::mean              2.228230                       # Number of instructions fetched each cycle (Total)
system.cpu.fetch.nisnDist::stdev             2.927566                       # Number of instructions fetched each cycle (Total)
system.cpu.fetch.nisnDist::underflows               0      0.00%      0.00% # Number of instructions fetched each cycle (Total)
system.cpu.fetch.nisnDist::0                   564491     55.09%     55.09% # Number of instructions fetched each cycle (Total)
system.cpu.fetch.nisnDist::1                    41766      4.08%     59.17% # Number of instructions fetched each cycle (Total)
system.cpu.fetch.nisnDist::2                    46701      4.56%     63.73% # Number of instructions fetched each cycle (Total)
system.cpu.fetch.nisnDist::3                    54848      5.35%     69.08% # Number of instructions fetched each cycle (Total)
system.cpu.fetch.nisnDist::4                    57553      5.62%     74.70% # Number of instructions fetched each cycle (Total)
system.cpu.fetch.nisnDist::5                    58887      5.75%     80.44% # Number of instructions fetched each cycle (Total)
system.cpu.fetch.nisnDist::6                    47117      4.60%     85.04% # Number of instructions fetched each cycle (Total)
system.cpu.fetch.nisnDist::7                    50120      4.89%     89.93% # Number of instructions fetched each cycle (Total)
system.cpu.fetch.nisnDist::8                   103153     10.07%    100.00% # Number of instructions fetched each cycle (Total)
system.cpu.fetch.nisnDist::overflows                0      0.00%    100.00% # Number of instructions fetched each cycle (Total)
system.cpu.fetch.nisnDist::min_value                0                       # Number of instructions fetched each cycle (Total)
system.cpu.fetch.nisnDist::max_value                8                       # Number of instructions fetched each cycle (Total)
system.cpu.fetch.nisnDist::total              1024636                       # Number of instructions fetched each cycle (Total)
system.cpu.fetch.branchRate                  0.233853                       # Number of branch fetches per cycle
system.cpu.fetch.rate                        1.093585                       # Number of inst fetches per cycle
system.cpu.icache.demand_hits::.cpu.inst       364815                       # number of demand (read+write) hits
system.cpu.icache.demand_hits::total           364815                       # number of demand (read+write) hits
system.cpu.icache.overall_hits::.cpu.inst       364815                       # number of overall hits
system.cpu.icache.overall_hits::total          364815                       # number of overall hits
system.cpu.icache.demand_misses::.cpu.inst         6753                       # number of demand (read+write) misses
system.cpu.icache.demand_misses::total           6753                       # number of demand (read+write) misses
system.cpu.icache.overall_misses::.cpu.inst         6753                       # number of overall misses
system.cpu.icache.overall_misses::total          6753                       # number of overall misses
system.cpu.icache.demand_miss_latency::.cpu.inst    313601999                       # number of demand (read+write) miss cycles
system.cpu.icache.demand_miss_latency::total    313601999                       # number of demand (read+write) miss cycles
system.cpu.icache.overall_miss_latency::.cpu.inst    313601999                       # number of overall miss cycles
system.cpu.icache.overall_miss_latency::total    313601999                       # number of overall miss cycles
system.cpu.icache.demand_accesses::.cpu.inst       371568                       # number of demand (read+write) accesses
[...]
system.mem_ctrls1.dram.perBankWrBursts::2            0                       # Per bank write bursts
system.mem_ctrls1.dram.perBankWrBursts::3            0                       # Per bank write bursts
system.mem_ctrls1.dram.perBankWrBursts::4            0                       # Per bank write bursts
system.mem_ctrls1.dram.perBankWrBursts::5            0                       # Per bank write bursts
system.mem_ctrls1.dram.perBankWrBursts::6            0                       # Per bank write bursts
system.mem_ctrls1.dram.perBankWrBursts::7            0                       # Per bank write bursts
system.mem_ctrls1.dram.perBankWrBursts::8            0                       # Per bank write bursts
system.mem_ctrls1.dram.perBankWrBursts::9            0                       # Per bank write bursts
system.mem_ctrls1.dram.perBankWrBursts::10            0                       # Per bank write bursts
system.mem_ctrls1.dram.perBankWrBursts::11            0                       # Per bank write bursts
system.mem_ctrls1.dram.perBankWrBursts::12            0                       # Per bank write bursts
system.mem_ctrls1.dram.perBankWrBursts::13            0                       # Per bank write bursts
system.mem_ctrls1.dram.perBankWrBursts::14            0                       # Per bank write bursts
system.mem_ctrls1.dram.perBankWrBursts::15            0                       # Per bank write bursts
system.mem_ctrls1.dram.perBankWrBursts::16            0                       # Per bank write bursts
system.mem_ctrls1.dram.perBankWrBursts::17            0                       # Per bank write bursts
system.mem_ctrls1.dram.perBankWrBursts::18            0                       # Per bank write bursts
system.mem_ctrls1.dram.perBankWrBursts::19            0                       # Per bank write bursts
system.mem_ctrls1.dram.perBankWrBursts::20            0                       # Per bank write bursts
system.mem_ctrls1.dram.perBankWrBursts::21            0                       # Per bank write bursts
system.mem_ctrls1.dram.perBankWrBursts::22            0                       # Per bank write bursts
system.mem_ctrls1.dram.perBankWrBursts::23            0                       # Per bank write bursts
system.mem_ctrls1.dram.perBankWrBursts::24            0                       # Per bank write bursts
system.mem_ctrls1.dram.perBankWrBursts::25            0                       # Per bank write bursts
system.mem_ctrls1.dram.perBankWrBursts::26            0                       # Per bank write bursts
system.mem_ctrls1.dram.perBankWrBursts::27            0                       # Per bank write bursts
system.mem_ctrls1.dram.perBankWrBursts::28            0                       # Per bank write bursts
system.mem_ctrls1.dram.perBankWrBursts::29            0                       # Per bank write bursts
system.mem_ctrls1.dram.perBankWrBursts::30            0                       # Per bank write bursts
system.mem_ctrls1.dram.perBankWrBursts::31            0                       # Per bank write bursts
system.mem_ctrls1.dram.totQLat               53291963                       # Total ticks spent queuing
system.mem_ctrls1.dram.totBusLat             19555508                       # Total ticks spent in databus transfers
system.mem_ctrls1.dram.totMemAccLat         155952511                       # Total ticks spent from burst creation until serviced by the DRAM
system.mem_ctrls1.dram.avgQLat                9080.25                       # Average queueing delay per DRAM burst
system.mem_ctrls1.dram.avgBusLat              3332.00                       # Average bus latency per DRAM burst
system.mem_ctrls1.dram.avgMemAccLat          26572.25                       # Average memory access latency per DRAM burst
system.mem_ctrls1.dram.readRowHits               4839                       # Number of row buffer hits during reads
system.mem_ctrls1.dram.writeRowHits                 0                       # Number of row buffer hits during writes
system.mem_ctrls1.dram.readRowHitRate           82.45                       # Row buffer hit rate for reads
system.mem_ctrls1.dram.writeRowHitRate            nan                       # Row buffer hit rate for writes
system.mem_ctrls1.dram.bytesPerActivate::samples         1019                       # Bytes accessed per row activation
system.mem_ctrls1.dram.bytesPerActivate::mean   366.414132                       # Bytes accessed per row activation
system.mem_ctrls1.dram.bytesPerActivate::gmean   234.716739                       # Bytes accessed per row activation
system.mem_ctrls1.dram.bytesPerActivate::stdev   338.151216                       # Bytes accessed per row activation
system.mem_ctrls1.dram.bytesPerActivate::0-127          201     19.73%     19.73% # Bytes accessed per row activation
system.mem_ctrls1.dram.bytesPerActivate::128-255          310     30.42%     50.15% # Bytes accessed per row activation
system.mem_ctrls1.dram.bytesPerActivate::256-383          137     13.44%     63.59% # Bytes accessed per row activation
system.mem_ctrls1.dram.bytesPerActivate::384-511           73      7.16%     70.76% # Bytes accessed per row activation
system.mem_ctrls1.dram.bytesPerActivate::512-639           54      5.30%     76.05% # Bytes accessed per row activation
system.mem_ctrls1.dram.bytesPerActivate::640-767           45      4.42%     80.47% # Bytes accessed per row activation
system.mem_ctrls1.dram.bytesPerActivate::768-895           29      2.85%     83.32% # Bytes accessed per row activation
system.mem_ctrls1.dram.bytesPerActivate::896-1023           23      2.26%     85.57% # Bytes accessed per row activation
system.mem_ctrls1.dram.bytesPerActivate::1024-1151          147     14.43%    100.00% # Bytes accessed per row activation
system.mem_ctrls1.dram.bytesPerActivate::total         1019                       # Bytes accessed per row activation
system.mem_ctrls1.dram.bytesRead               375616                       # Total number of bytes read from DRAM
system.mem_ctrls1.dram.bytesWritten                 0                       # Total number of bytes written to DRAM
system.mem_ctrls1.dram.avgRdBW             682.474719                       # Average DRAM read bandwidth in MiBytes/s
system.mem_ctrls1.dram.avgWrBW                      0                       # Average DRAM write bandwidth in MiBytes/s
system.mem_ctrls1.dram.peakBW                19207.00                       # Theoretical peak bandwidth in MiByte/s
system.mem_ctrls1.dram.busUtil                   3.55                       # Data bus utilization in percentage
system.mem_ctrls1.dram.busUtilRead               3.55                       # Data bus utilization in percentage for reads
system.mem_ctrls1.dram.busUtilWrite              0.00                       # Data bus utilization in percentage for writes
system.mem_ctrls1.dram.pageHitRate              82.45                       # Row buffer hit rate, read and write combined
system.mem_ctrls1.dram.power_state.pwrStateResidencyTicks::UNDEFINED    550373500                       # Cumulative time (in ticks) in various power states
system.mem_ctrls1.dram.rank0.actEnergy   1980407.520000                       # Energy for activate commands per rank (pJ)
system.mem_ctrls1.dram.rank0.preEnergy   2620487.385600                       # Energy for precharge commands per rank (pJ)
system.mem_ctrls1.dram.rank0.readEnergy  15100677.312000                       # Energy for read commands per rank (pJ)
system.mem_ctrls1.dram.rank0.writeEnergy            0                       # Energy for write commands per rank (pJ)
system.mem_ctrls1.dram.rank0.refreshEnergy 96976433.904000                       # Energy for refresh commands per rank (pJ)
system.mem_ctrls1.dram.rank0.actBackEnergy 441591928.545600                       # Energy for active background per rank (pJ)
system.mem_ctrls1.dram.rank0.preBackEnergy 19981828.070400                       # Energy for precharge background per rank (pJ)
system.mem_ctrls1.dram.rank0.actPowerDownEnergy            0                       # Energy for active power-down per rank (pJ)
system.mem_ctrls1.dram.rank0.prePowerDownEnergy            0                       # Energy for precharge power-down per rank (pJ)
system.mem_ctrls1.dram.rank0.selfRefreshEnergy            0                       # Energy for self refresh per rank (pJ)
system.mem_ctrls1.dram.rank0.totalEnergy 578251762.737600                       # Total energy per rank (pJ)
system.mem_ctrls1.dram.rank0.averagePower  1050.653352                       # Core power per rank (mW)
system.mem_ctrls1.dram.rank0.totalIdleTime            0                       # Total Idle time Per DRAM Rank
system.mem_ctrls1.dram.rank0.pwrStateTime::IDLE     28549820                       # Time in different power states
system.mem_ctrls1.dram.rank0.pwrStateTime::REF     24500000                       # Time in different power states
system.mem_ctrls1.dram.rank0.pwrStateTime::SREF            0                       # Time in different power states
system.mem_ctrls1.dram.rank0.pwrStateTime::PRE_PDN            0                       # Time in different power states
system.mem_ctrls1.dram.rank0.pwrStateTime::ACT    497323680                       # Time in different power states
system.mem_ctrls1.dram.rank0.pwrStateTime::ACT_PDN            0                       # Time in different power states
system.mem_ctrls1.dram.rank1.actEnergy   1231907.040000                       # Energy for activate commands per rank (pJ)
system.mem_ctrls1.dram.rank1.preEnergy   1604633.889600                       # Energy for precharge commands per rank (pJ)
system.mem_ctrls1.dram.rank1.readEnergy  9586195.987200                       # Energy for read commands per rank (pJ)
system.mem_ctrls1.dram.rank1.writeEnergy            0                       # Energy for write commands per rank (pJ)
system.mem_ctrls1.dram.rank1.refreshEnergy 96976433.904000                       # Energy for refresh commands per rank (pJ)
system.mem_ctrls1.dram.rank1.actBackEnergy 389806167.139200                       # Energy for active background per rank (pJ)
system.mem_ctrls1.dram.rank1.preBackEnergy 59772017.625600                       # Energy for precharge background per rank (pJ)
system.mem_ctrls1.dram.rank1.actPowerDownEnergy            0                       # Energy for active power-down per rank (pJ)
system.mem_ctrls1.dram.rank1.prePowerDownEnergy            0                       # Energy for precharge power-down per rank (pJ)
system.mem_ctrls1.dram.rank1.selfRefreshEnergy            0                       # Energy for self refresh per rank (pJ)
system.mem_ctrls1.dram.rank1.totalEnergy 558977355.585600                       # Total energy per rank (pJ)
system.mem_ctrls1.dram.rank1.averagePower  1015.632758                       # Core power per rank (mW)
system.mem_ctrls1.dram.rank1.totalIdleTime            0                       # Total Idle time Per DRAM Rank
system.mem_ctrls1.dram.rank1.pwrStateTime::IDLE     89376982                       # Time in different power states
system.mem_ctrls1.dram.rank1.pwrStateTime::REF     24500000                       # Time in different power states
system.mem_ctrls1.dram.rank1.pwrStateTime::SREF            0                       # Time in different power states
system.mem_ctrls1.dram.rank1.pwrStateTime::PRE_PDN            0                       # Time in different power states
system.mem_ctrls1.dram.rank1.pwrStateTime::ACT    436496518                       # Time in different power states
system.mem_ctrls1.dram.rank1.pwrStateTime::ACT_PDN            0                       # Time in different power states
system.mem_ctrls1.power_state.pwrStateResidencyTicks::UNDEFINED    550373500                       # Cumulative time (in ticks) in various power states
system.membus.trans_dist::ReadResp               9673                       # Transaction distribution
system.membus.trans_dist::ReadExReq              2082                       # Transaction distribution
system.membus.trans_dist::ReadExResp             2082                       # Transaction distribution
system.membus.trans_dist::ReadSharedReq          9673                       # Transaction distribution
system.membus.pkt_count_system.l2.mem_side_port::system.mem_ctrls0.port        11772                       # Packet count per connected requestor and responder (bytes)
system.membus.pkt_count_system.l2.mem_side_port::system.mem_ctrls1.port        11738                       # Packet count per connected requestor and responder (bytes)
system.membus.pkt_count_system.l2.mem_side_port::total        23510                       # Packet count per connected requestor and responder (bytes)
system.membus.pkt_count::total                  23510                       # Packet count per connected requestor and responder (bytes)
system.membus.pkt_size_system.l2.mem_side_port::system.mem_ctrls0.port       376704                       # Cumulative packet size per connected requestor and responder (bytes)
system.membus.pkt_size_system.l2.mem_side_port::system.mem_ctrls1.port       375616                       # Cumulative packet size per connected requestor and responder (bytes)
system.membus.pkt_size_system.l2.mem_side_port::total       752320                       # Cumulative packet size per connected requestor and responder (bytes)
system.membus.pkt_size::total                  752320                       # Cumulative packet size per connected requestor and responder (bytes)
system.membus.snoops                                0                       # Total snoops (count)
system.membus.snoopTraffic                          0                       # Total snoop traffic (bytes)
system.membus.snoop_fanout::samples             11755                       # Request fanout histogram
system.membus.snoop_fanout::mean                    0                       # Request fanout histogram
system.membus.snoop_fanout::stdev                   0                       # Request fanout histogram
system.membus.snoop_fanout::underflows              0      0.00%      0.00% # Request fanout histogram
system.membus.snoop_fanout::0                   11755    100.00%    100.00% # Request fanout histogram
system.membus.snoop_fanout::1                       0      0.00%    100.00% # Request fanout histogram
system.membus.snoop_fanout::overflows               0      0.00%    100.00% # Request fanout histogram
system.membus.snoop_fanout::min_value               0                       # Request fanout histogram
system.membus.snoop_fanout::max_value               0                       # Request fanout histogram
system.membus.snoop_fanout::total               11755                       # Request fanout histogram
system.membus.power_state.pwrStateResidencyTicks::UNDEFINED    550373500                       # Cumulative time (in ticks) in various power states
system.membus.reqLayer4.occupancy             7235969                       # Layer occupancy (ticks)
system.membus.reqLayer4.utilization               1.3                       # Layer utilization (%)
system.membus.reqLayer5.occupancy             7233476                       # Layer occupancy (ticks)
system.membus.reqLayer5.utilization               1.3                       # Layer utilization (%)
system.membus.respLayer1.occupancy           62513726                       # Layer occupancy (ticks)
system.membus.respLayer1.utilization             11.4                       # Layer utilization (%)
system.tol2bus.trans_dist::ReadResp             22498                       # Transaction distribution
system.tol2bus.trans_dist::WritebackDirty        10347                       # Transaction distribution
system.tol2bus.trans_dist::WritebackClean        14739                       # Transaction distribution
system.tol2bus.trans_dist::HardPFReq              119                       # Transaction distribution
system.tol2bus.trans_dist::UpgradeReq               1                       # Transaction distribution
system.tol2bus.trans_dist::UpgradeResp              1                       # Transaction distribution
system.tol2bus.trans_dist::ReadExReq             3353                       # Transaction distribution
system.tol2bus.trans_dist::ReadExResp            3353                       # Transaction distribution
system.tol2bus.trans_dist::ReadCleanReq          5440                       # Transaction distribution
system.tol2bus.trans_dist::ReadSharedReq        17059                       # Transaction distribution
system.tol2bus.pkt_count_system.cpu.icache.mem_side_port::system.l2.cpu_side_port        15799                       # Packet count per connected requestor and responder (bytes)
system.tol2bus.pkt_count_system.cpu.dcache.mem_side_port::system.l2.cpu_side_port        60986                       # Packet count per connected requestor and responder (bytes)
system.tol2bus.pkt_count::total                 76785                       # Packet count per connected requestor and responder (bytes)
system.tol2bus.pkt_size_system.cpu.icache.mem_side_port::system.l2.cpu_side_port       662976                       # Cumulative packet size per connected requestor and responder (bytes)
system.tol2bus.pkt_size_system.cpu.dcache.mem_side_port::system.l2.cpu_side_port      2596608                       # Cumulative packet size per connected requestor and responder (bytes)
system.tol2bus.pkt_size::total                3259584                       # Cumulative packet size per connected requestor and responder (bytes)
system.tol2bus.snoops                             125                       # Total snoops (count)
system.tol2bus.snoopTraffic                       384                       # Total snoop traffic (bytes)
system.tol2bus.snoop_fanout::samples            25972                       # Request fanout histogram
system.tol2bus.snoop_fanout::mean            0.001348                       # Request fanout histogram
system.tol2bus.snoop_fanout::stdev           0.036686                       # Request fanout histogram
system.tol2bus.snoop_fanout::underflows             0      0.00%      0.00% # Request fanout histogram
system.tol2bus.snoop_fanout::0                  25937     99.87%     99.87% # Request fanout histogram
system.tol2bus.snoop_fanout::1                     35      0.13%    100.00% # Request fanout histogram
system.tol2bus.snoop_fanout::2                      0      0.00%    100.00% # Request fanout histogram
system.tol2bus.snoop_fanout::3                      0      0.00%    100.00% # Request fanout histogram
system.tol2bus.snoop_fanout::4                      0      0.00%    100.00% # Request fanout histogram
system.tol2bus.snoop_fanout::overflows              0      0.00%    100.00% # Request fanout histogram
system.tol2bus.snoop_fanout::min_value              0                       # Request fanout histogram
system.tol2bus.snoop_fanout::max_value              1                       # Request fanout histogram
system.tol2bus.snoop_fanout::total              25972                       # Request fanout histogram
system.tol2bus.power_state.pwrStateResidencyTicks::UNDEFINED    550373500                       # Cumulative time (in ticks) in various power states
system.tol2bus.reqLayer0.occupancy           50555500                       # Layer occupancy (ticks)
system.tol2bus.reqLayer0.utilization              9.2                       # Layer utilization (%)
system.tol2bus.respLayer0.occupancy           8186943                       # Layer occupancy (ticks)
system.tol2bus.respLayer0.utilization             1.5                       # Layer utilization (%)
system.tol2bus.respLayer1.occupancy          30628979                       # Layer occupancy (ticks)
system.tol2bus.respLayer1.utilization             5.6                       # Layer utilization (%)
system.voltage_domain.voltage                       1                       # Voltage in Volts

---------- End Simulation Statistics   ----------
