
---------- Begin Simulation Statistics ----------
final_tick                                  297741500                       # Number of ticks from beginning of simulation (restored from checkpoints and never reset)
host_mem_usage                               67285256                       # Number of bytes of host memory used
host_seconds                                    18.31                       # Real time elapsed on the host
host_tick_rate                               16257308                       # Simulator tick rate (ticks/s)
sim_freq                                 1000000000000                       # Frequency of simulated ticks
sim_seconds                                  0.000298                       # Number of seconds simulated
sim_ticks                                   297741500                       # Number of ticks simulated
system.cpu.cc_regfile_reads                    453254                       # number of cc regfile reads
system.cpu.cc_regfile_writes                   276422                       # number of cc regfile writes
system.cpu.committedInsts::0                   168221                       # Number of Instructions Simulated
system.cpu.committedInsts::1                   168212                       # Number of Instructions Simulated
system.cpu.committedInsts::total               336433                       # Number of Instructions Simulated
system.cpu.committedOps::0                     315217                       # Number of Ops (including micro ops) Simulated
system.cpu.committedOps::1                     315207                       # Number of Ops (including micro ops) Simulated
system.cpu.committedOps::total                 630424                       # Number of Ops (including micro ops) Simulated
system.cpu.cpi::0                            3.539891                       # CPI: Cycles Per Instruction
system.cpu.cpi::1                            3.540080                       # CPI: Cycles Per Instruction
system.cpu.cpi_total                         1.769993                       # CPI: Total CPI of All Threads
system.cpu.fp_regfile_reads                     57135                       # number of floating regfile reads
system.cpu.fp_regfile_writes                    31525                       # number of floating regfile writes
system.cpu.idleCycles                           36004                       # Total number of cycles that the CPU has spent unscheduled due to idling
system.cpu.iew.branchMispredicts                 9592                       # Number of branch mispredicts detected at execute
system.cpu.iew.exec_branches::0                 39146                       # Number of branches executed
system.cpu.iew.exec_branches::1                 39215                       # Number of branches executed
system.cpu.iew.exec_branches::total             78361                       # Number of branches executed
system.cpu.iew.exec_nop::0                          0                       # number of nop insts executed
system.cpu.iew.exec_nop::1                          0                       # number of nop insts executed
system.cpu.iew.exec_nop::total                      0                       # number of nop insts executed
system.cpu.iew.exec_rate                     1.389522                       # Inst execution rate
system.cpu.iew.exec_refs::0                     88831                       # number of memory reference insts executed
system.cpu.iew.exec_refs::1                     88529                       # number of memory reference insts executed
system.cpu.iew.exec_refs::total                177360                       # number of memory reference insts executed
system.cpu.iew.exec_stores::0                   24258                       # Number of stores executed
system.cpu.iew.exec_stores::1                   24312                       # Number of stores executed
system.cpu.iew.exec_stores::total               48570                       # Number of stores executed
system.cpu.iew.exec_swp::0                          0                       # number of swp insts executed
system.cpu.iew.exec_swp::1                          0                       # number of swp insts executed
system.cpu.iew.exec_swp::total                      0                       # number of swp insts executed
system.cpu.iew.iewBlockCycles                  146291                       # Number of cycles IEW is blocking
system.cpu.iew.iewDispLoadInsts                133379                       # Number of dispatched load instructions
system.cpu.iew.iewDispNonSpecInsts                  2                       # Number of dispatched non-speculative instructions
system.cpu.iew.iewDispSquashedInsts                 0                       # Number of squashed instructions skipped by dispatch
system.cpu.iew.iewDispStoreInsts                57074                       # Number of dispatched store instructions
system.cpu.iew.iewDispatchedInsts              940278                       # Number of instructions dispatched to IQ
system.cpu.iew.iewExecLoadInsts::0              64573                       # Number of load instructions executed
system.cpu.iew.iewExecLoadInsts::1              64217                       # Number of load instructions executed
system.cpu.iew.iewExecLoadInsts::total         128790                       # Number of load instructions executed
system.cpu.iew.iewExecSquashedInsts             14592                       # Number of squashed instructions skipped in execute
system.cpu.iew.iewExecutedInsts                827438                       # Number of executed instructions
system.cpu.iew.iewIQFullEvents                    758                       # Number of times the IQ has become full, causing a stall
system.cpu.iew.iewIdleCycles                        0                       # Number of cycles IEW is idle
system.cpu.iew.iewLSQFullEvents                  2561                       # Number of times the LSQ has become full, causing a stall
system.cpu.iew.iewSquashCycles                   8773                       # Number of cycles IEW is squashing
system.cpu.iew.iewUnblockCycles                  3775                       # Number of cycles IEW is unblocking
system.cpu.iew.memOrderViolationEvents             70                       # Number of memory order violations
system.cpu.iew.predictedNotTakenIncorrect         8214                       # Number of branches that were predicted not taken incorrectly
system.cpu.iew.predictedTakenIncorrect           1378                       # Number of branches that were predicted taken incorrectly
system.cpu.iew.wb_consumers::0                 509067                       # num instructions consuming a value
system.cpu.iew.wb_consumers::1                 511370                       # num instructions consuming a value
system.cpu.iew.wb_consumers::total            1020437                       # num instructions consuming a value
system.cpu.iew.wb_count::0                     404102                       # cumulative count of insts written-back
system.cpu.iew.wb_count::1                     405753                       # cumulative count of insts written-back
system.cpu.iew.wb_count::total                 809855                       # cumulative count of insts written-back
system.cpu.iew.wb_fanout::0                  0.584780                       # average fanout of values written-back
system.cpu.iew.wb_fanout::1                  0.585238                       # average fanout of values written-back
system.cpu.iew.wb_fanout::total              0.585009                       # average fanout of values written-back
system.cpu.iew.wb_producers::0                 297692                       # num instructions producing a value
system.cpu.iew.wb_producers::1                 299273                       # num instructions producing a value
system.cpu.iew.wb_producers::total             596965                       # num instructions producing a value
system.cpu.iew.wb_rate::0                    0.678611                       # insts written-back per cycle
system.cpu.iew.wb_rate::1                    0.681384                       # insts written-back per cycle
system.cpu.iew.wb_rate::total                1.359995                       # insts written-back per cycle
system.cpu.iew.wb_sent::0                      404752                       # cumulative count of insts sent to commit
system.cpu.iew.wb_sent::1                      406393                       # cumulative count of insts sent to commit
system.cpu.iew.wb_sent::total                  811145                       # cumulative count of insts sent to commit
system.cpu.int_regfile_reads                  1223243                       # number of integer regfile reads
system.cpu.int_regfile_writes                  651236                       # number of integer regfile writes
system.cpu.ipc::0                            0.282495                       # IPC: Instructions Per Cycle
system.cpu.ipc::1                            0.282479                       # IPC: Instructions Per Cycle
system.cpu.ipc_total                         0.564974                       # IPC: Total IPC of All Threads
system.cpu.iq.FU_type_0::No_OpClass              6999      1.64%      1.64% # Type of FU issued
system.cpu.iq.FU_type_0::IntAlu                308204     72.35%     74.00% # Type of FU issued
system.cpu.iq.FU_type_0::IntMult                   44      0.01%     74.01% # Type of FU issued
system.cpu.iq.FU_type_0::IntDiv                  2130      0.50%     74.51% # Type of FU issued
system.cpu.iq.FU_type_0::FloatAdd                1224      0.29%     74.79% # Type of FU issued
system.cpu.iq.FU_type_0::FloatCmp                   0      0.00%     74.79% # Type of FU issued
system.cpu.iq.FU_type_0::FloatCvt                   0      0.00%     74.79% # Type of FU issued
system.cpu.iq.FU_type_0::FloatMult                  0      0.00%     74.79% # Type of FU issued
system.cpu.iq.FU_type_0::FloatMultAcc               0      0.00%     74.79% # Type of FU issued
system.cpu.iq.FU_type_0::FloatDiv                   0      0.00%     74.79% # Type of FU issued
system.cpu.iq.FU_type_0::FloatMisc                  0      0.00%     74.79% # Type of FU issued
system.cpu.iq.FU_type_0::FloatSqrt                  0      0.00%     74.79% # Type of FU issued
system.cpu.iq.FU_type_0::SimdAdd                 1418      0.33%     75.13% # Type of FU issued
system.cpu.iq.FU_type_0::SimdAddAcc                 0      0.00%     75.13% # Type of FU issued
system.cpu.iq.FU_type_0::SimdAlu                 3469      0.81%     75.94% # Type of FU issued
system.cpu.iq.FU_type_0::SimdCmp                    0      0.00%     75.94% # Type of FU issued
system.cpu.iq.FU_type_0::SimdCvt                 3397      0.80%     76.74% # Type of FU issued
system.cpu.iq.FU_type_0::SimdMisc                2128      0.50%     77.24% # Type of FU issued
system.cpu.iq.FU_type_0::SimdMult                   0      0.00%     77.24% # Type of FU issued
system.cpu.iq.FU_type_0::SimdMultAcc                0      0.00%     77.24% # Type of FU issued
system.cpu.iq.FU_type_0::SimdShift                522      0.12%     77.36% # Type of FU issued
system.cpu.iq.FU_type_0::SimdShiftAcc               0      0.00%     77.36% # Type of FU issued
system.cpu.iq.FU_type_0::SimdDiv                    0      0.00%     77.36% # Type of FU issued
system.cpu.iq.FU_type_0::SimdSqrt                   0      0.00%     77.36% # Type of FU issued
system.cpu.iq.FU_type_0::SimdFloatAdd               0      0.00%     77.36% # Type of FU issued
system.cpu.iq.FU_type_0::SimdFloatAlu               0      0.00%     77.36% # Type of FU issued
system.cpu.iq.FU_type_0::SimdFloatCmp               0      0.00%     77.36% # Type of FU issued
system.cpu.iq.FU_type_0::SimdFloatCvt               0      0.00%     77.36% # Type of FU issued
system.cpu.iq.FU_type_0::SimdFloatDiv               0      0.00%     77.36% # Type of FU issued
system.cpu.iq.FU_type_0::SimdFloatMisc              0      0.00%     77.36% # Type of FU issued
system.cpu.iq.FU_type_0::SimdFloatMult              0      0.00%     77.36% # Type of FU issued
system.cpu.iq.FU_type_0::SimdFloatMultAcc            0      0.00%     77.36% # Type of FU issued
system.cpu.iq.FU_type_0::SimdFloatSqrt              0      0.00%     77.36% # Type of FU issued
system.cpu.iq.FU_type_0::SimdReduceAdd              0      0.00%     77.36% # Type of FU issued
system.cpu.iq.FU_type_0::SimdReduceAlu              0      0.00%     77.36% # Type of FU issued
system.cpu.iq.FU_type_0::SimdReduceCmp              0      0.00%     77.36% # Type of FU issued
system.cpu.iq.FU_type_0::SimdFloatReduceAdd            0      0.00%     77.36% # Type of FU issued
system.cpu.iq.FU_type_0::SimdFloatReduceCmp            0      0.00%     77.36% # Type of FU issued
system.cpu.iq.FU_type_0::SimdAes                    0      0.00%     77.36% # Type of FU issued
system.cpu.iq.FU_type_0::SimdAesMix                 0      0.00%     77.36% # Type of FU issued
system.cpu.iq.FU_type_0::SimdSha1Hash               0      0.00%     77.36% # Type of FU issued
system.cpu.iq.FU_type_0::SimdSha1Hash2              0      0.00%     77.36% # Type of FU issued
system.cpu.iq.FU_type_0::SimdSha256Hash             0      0.00%     77.36% # Type of FU issued
system.cpu.iq.FU_type_0::SimdSha256Hash2            0      0.00%     77.36% # Type of FU issued
system.cpu.iq.FU_type_0::SimdShaSigma2              0      0.00%     77.36% # Type of FU issued
system.cpu.iq.FU_type_0::SimdShaSigma3              0      0.00%     77.36% # Type of FU issued
system.cpu.iq.FU_type_0::SimdPredAlu                0      0.00%     77.36% # Type of FU issued
system.cpu.iq.FU_type_0::MemRead                65121     15.29%     92.65% # Type of FU issued
system.cpu.iq.FU_type_0::MemWrite               22640      5.31%     97.96% # Type of FU issued
system.cpu.iq.FU_type_0::FloatMemRead            6188      1.45%     99.42% # Type of FU issued
system.cpu.iq.FU_type_0::FloatMemWrite           2484      0.58%    100.00% # Type of FU issued
system.cpu.iq.FU_type_0::IprAccess                  0      0.00%    100.00% # Type of FU issued
system.cpu.iq.FU_type_0::InstPrefetch               0      0.00%    100.00% # Type of FU issued
system.cpu.iq.FU_type_0::total                 425968                       # Type of FU issued
system.cpu.iq.FU_type_1::No_OpClass              7090      1.66%      1.66% # Type of FU issued
system.cpu.iq.FU_type_1::IntAlu                309516     72.45%     74.11% # Type of FU issued
system.cpu.iq.FU_type_1::IntMult                   35      0.01%     74.11% # Type of FU issued
system.cpu.iq.FU_type_1::IntDiv                  2122      0.50%     74.61% # Type of FU issued
system.cpu.iq.FU_type_1::FloatAdd                1228      0.29%     74.90% # Type of FU issued
system.cpu.iq.FU_type_1::FloatCmp                   0      0.00%     74.90% # Type of FU issued
system.cpu.iq.FU_type_1::FloatCvt                   0      0.00%     74.90% # Type of FU issued
system.cpu.iq.FU_type_1::FloatMult                  0      0.00%     74.90% # Type of FU issued
system.cpu.iq.FU_type_1::FloatMultAcc               0      0.00%     74.90% # Type of FU issued
system.cpu.iq.FU_type_1::FloatDiv                   0      0.00%     74.90% # Type of FU issued
system.cpu.iq.FU_type_1::FloatMisc                  0      0.00%     74.90% # Type of FU issued
system.cpu.iq.FU_type_1::FloatSqrt                  0      0.00%     74.90% # Type of FU issued
system.cpu.iq.FU_type_1::SimdAdd                 1444      0.34%     75.24% # Type of FU issued
system.cpu.iq.FU_type_1::SimdAddAcc                 0      0.00%     75.24% # Type of FU issued
system.cpu.iq.FU_type_1::SimdAlu                 3505      0.82%     76.06% # Type of FU issued
system.cpu.iq.FU_type_1::SimdCmp                    0      0.00%     76.06% # Type of FU issued
system.cpu.iq.FU_type_1::SimdCvt                 3456      0.81%     76.87% # Type of FU issued
system.cpu.iq.FU_type_1::SimdMisc                2141      0.50%     77.37% # Type of FU issued
system.cpu.iq.FU_type_1::SimdMult                   0      0.00%     77.37% # Type of FU issued
system.cpu.iq.FU_type_1::SimdMultAcc                0      0.00%     77.37% # Type of FU issued
system.cpu.iq.FU_type_1::SimdShift                518      0.12%     77.49% # Type of FU issued
system.cpu.iq.FU_type_1::SimdShiftAcc               0      0.00%     77.49% # Type of FU issued
system.cpu.iq.FU_type_1::SimdDiv                    0      0.00%     77.49% # Type of FU issued
system.cpu.iq.FU_type_1::SimdSqrt                   0      0.00%     77.49% # Type of FU issued
system.cpu.iq.FU_type_1::SimdFloatAdd               0      0.00%     77.49% # Type of FU issued
system.cpu.iq.FU_type_1::SimdFloatAlu               0      0.00%     77.49% # Type of FU issued
system.cpu.iq.FU_type_1::SimdFloatCmp               0      0.00%     77.49% # Type of FU issued
system.cpu.iq.FU_type_1::SimdFloatCvt               0      0.00%     77.49% # Type of FU issued
system.cpu.iq.FU_type_1::SimdFloatDiv               0      0.00%     77.49% # Type of FU issued
system.cpu.iq.FU_type_1::SimdFloatMisc              0      0.00%     77.49% # Type of FU issued
system.cpu.iq.FU_type_1::SimdFloatMult              0      0.00%     77.49% # Type of FU issued
system.cpu.iq.FU_type_1::SimdFloatMultAcc            0      0.00%     77.49% # Type of FU issued
system.cpu.iq.FU_type_1::SimdFloatSqrt              0      0.00%     77.49% # Type of FU issued
system.cpu.iq.FU_type_1::SimdReduceAdd              0      0.00%     77.49% # Type of FU issued
system.cpu.iq.FU_type_1::SimdReduceAlu              0      0.00%     77.49% # Type of FU issued
system.cpu.iq.FU_type_1::SimdReduceCmp              0      0.00%     77.49% # Type of FU issued
system.cpu.iq.FU_type_1::SimdFloatReduceAdd            0      0.00%     77.49% # Type of FU issued
system.cpu.iq.FU_type_1::SimdFloatReduceCmp            0      0.00%     77.49% # Type of FU issued
system.cpu.iq.FU_type_1::SimdAes                    0      0.00%     77.49% # Type of FU issued
system.cpu.iq.FU_type_1::SimdAesMix                 0      0.00%     77.49% # Type of FU issued
system.cpu.iq.FU_type_1::SimdSha1Hash               0      0.00%     77.49% # Type of FU issued
system.cpu.iq.FU_type_1::SimdSha1Hash2              0      0.00%     77.49% # Type of FU issued
system.cpu.iq.FU_type_1::SimdSha256Hash             0      0.00%     77.49% # Type of FU issued
system.cpu.iq.FU_type_1::SimdSha256Hash2            0      0.00%     77.49% # Type of FU issued
system.cpu.iq.FU_type_1::SimdShaSigma2              0      0.00%     77.49% # Type of FU issued
system.cpu.iq.FU_type_1::SimdShaSigma3              0      0.00%     77.49% # Type of FU issued
system.cpu.iq.FU_type_1::SimdPredAlu                0      0.00%     77.49% # Type of FU issued
system.cpu.iq.FU_type_1::MemRead                64740     15.15%     92.64% # Type of FU issued
system.cpu.iq.FU_type_1::MemWrite               22715      5.32%     97.96% # Type of FU issued
system.cpu.iq.FU_type_1::FloatMemRead            6248      1.46%     99.42% # Type of FU issued
system.cpu.iq.FU_type_1::FloatMemWrite           2473      0.58%    100.00% # Type of FU issued
system.cpu.iq.FU_type_1::IprAccess                  0      0.00%    100.00% # Type of FU issued
system.cpu.iq.FU_type_1::InstPrefetch               0      0.00%    100.00% # Type of FU issued
system.cpu.iq.FU_type_1::total                 427231                       # Type of FU issued
system.cpu.iq.FU_type::total                   853199      0.00%      0.00% # Type of FU issued
system.cpu.iq.fp_alu_accesses                   81665                       # Number of floating point alu accesses
system.cpu.iq.fp_inst_queue_reads              126774                       # Number of floating instruction queue reads
system.cpu.iq.fp_inst_queue_wakeup_accesses        38880                       # Number of floating instruction queue wakeup accesses
system.cpu.iq.fp_inst_queue_writes              83532                       # Number of floating instruction queue writes
system.cpu.iq.fu_busy_cnt::0                   249682                       # FU busy when requested
system.cpu.iq.fu_busy_cnt::1                   248710                       # FU busy when requested
system.cpu.iq.fu_busy_cnt::total               498392                       # FU busy when requested
system.cpu.iq.fu_busy_rate::0                0.292642                       # FU busy rate (busy events/executed inst)
system.cpu.iq.fu_busy_rate::1                0.291503                       # FU busy rate (busy events/executed inst)
system.cpu.iq.fu_busy_rate::total            0.584145                       # FU busy rate (busy events/executed inst)
system.cpu.iq.fu_full::No_OpClass                   0      0.00%      0.00% # attempts to use FU when none available
system.cpu.iq.fu_full::IntAlu                  249298     50.02%     50.02% # attempts to use FU when none available
system.cpu.iq.fu_full::IntMult                     50      0.01%     50.03% # attempts to use FU when none available
system.cpu.iq.fu_full::IntDiv                   19690      3.95%     53.98% # attempts to use FU when none available
system.cpu.iq.fu_full::FloatAdd                  2418      0.49%     54.47% # attempts to use FU when none available
system.cpu.iq.fu_full::FloatCmp                     0      0.00%     54.47% # attempts to use FU when none available
system.cpu.iq.fu_full::FloatCvt                     0      0.00%     54.47% # attempts to use FU when none available
system.cpu.iq.fu_full::FloatMult                    0      0.00%     54.47% # attempts to use FU when none available
system.cpu.iq.fu_full::FloatMultAcc                 0      0.00%     54.47% # attempts to use FU when none available
system.cpu.iq.fu_full::FloatDiv                     0      0.00%     54.47% # attempts to use FU when none available
system.cpu.iq.fu_full::FloatMisc                    0      0.00%     54.47% # attempts to use FU when none available
system.cpu.iq.fu_full::FloatSqrt                    0      0.00%     54.47% # attempts to use FU when none available
system.cpu.iq.fu_full::SimdAdd                   2546      0.51%     54.98% # attempts to use FU when none available
system.cpu.iq.fu_full::SimdAddAcc                   0      0.00%     54.98% # attempts to use FU when none available
system.cpu.iq.fu_full::SimdAlu                   4349      0.87%     55.85% # attempts to use FU when none available
system.cpu.iq.fu_full::SimdCmp                      0      0.00%     55.85% # attempts to use FU when none available
system.cpu.iq.fu_full::SimdCvt                   4949      0.99%     56.84% # attempts to use FU when none available
system.cpu.iq.fu_full::SimdMisc                  3905      0.78%     57.63% # attempts to use FU when none available
system.cpu.iq.fu_full::SimdMult                     0      0.00%     57.63% # attempts to use FU when none available
system.cpu.iq.fu_full::SimdMultAcc                  0      0.00%     57.63% # attempts to use FU when none available
system.cpu.iq.fu_full::SimdShift                 1090      0.22%     57.85% # attempts to use FU when none available
system.cpu.iq.fu_full::SimdShiftAcc                 0      0.00%     57.85% # attempts to use FU when none available
system.cpu.iq.fu_full::SimdDiv                      0      0.00%     57.85% # attempts to use FU when none available
system.cpu.iq.fu_full::SimdSqrt                     0      0.00%     57.85% # attempts to use FU when none available
system.cpu.iq.fu_full::SimdFloatAdd                 0      0.00%     57.85% # attempts to use FU when none available
system.cpu.iq.fu_full::SimdFloatAlu                 0      0.00%     57.85% # attempts to use FU when none available
system.cpu.iq.fu_full::SimdFloatCmp                 0      0.00%     57.85% # attempts to use FU when none available
system.cpu.iq.fu_full::SimdFloatCvt                 0      0.00%     57.85% # attempts to use FU when none available
system.cpu.iq.fu_full::SimdFloatDiv                 0      0.00%     57.85% # attempts to use FU when none available
system.cpu.iq.fu_full::SimdFloatMisc                0      0.00%     57.85% # attempts to use FU when none available
system.cpu.iq.fu_full::SimdFloatMult                0      0.00%     57.85% # attempts to use FU when none available
system.cpu.iq.fu_full::SimdFloatMultAcc             0      0.00%     57.85% # attempts to use FU when none available
system.cpu.iq.fu_full::SimdFloatSqrt                0      0.00%     57.85% # attempts to use FU when none available
system.cpu.iq.fu_full::SimdReduceAdd                0      0.00%     57.85% # attempts to use FU when none available
system.cpu.iq.fu_full::SimdReduceAlu                0      0.00%     57.85% # attempts to use FU when none available
system.cpu.iq.fu_full::SimdReduceCmp                0      0.00%     57.85% # attempts to use FU when none available
system.cpu.iq.fu_full::SimdFloatReduceAdd            0      0.00%     57.85% # attempts to use FU when none available
system.cpu.iq.fu_full::SimdFloatReduceCmp            0      0.00%     57.85% # attempts to use FU when none available
system.cpu.iq.fu_full::SimdAes                      0      0.00%     57.85% # attempts to use FU when none available
system.cpu.iq.fu_full::SimdAesMix                   0      0.00%     57.85% # attempts to use FU when none available
system.cpu.iq.fu_full::SimdSha1Hash                 0      0.00%     57.85% # attempts to use FU when none available
system.cpu.iq.fu_full::SimdSha1Hash2                0      0.00%     57.85% # attempts to use FU when none available
system.cpu.iq.fu_full::SimdSha256Hash               0      0.00%     57.85% # attempts to use FU when none available
system.cpu.iq.fu_full::SimdSha256Hash2              0      0.00%     57.85% # attempts to use FU when none available
system.cpu.iq.fu_full::SimdShaSigma2                0      0.00%     57.85% # attempts to use FU when none available
system.cpu.iq.fu_full::SimdShaSigma3                0      0.00%     57.85% # attempts to use FU when none available
system.cpu.iq.fu_full::SimdPredAlu                  0      0.00%     57.85% # attempts to use FU when none available
system.cpu.iq.fu_full::MemRead                 157418     31.59%     89.43% # attempts to use FU when none available
system.cpu.iq.fu_full::MemWrite                 52679     10.57%    100.00% # attempts to use FU when none available
system.cpu.iq.fu_full::FloatMemRead                 0      0.00%    100.00% # attempts to use FU when none available
system.cpu.iq.fu_full::FloatMemWrite                0      0.00%    100.00% # attempts to use FU when none available
system.cpu.iq.fu_full::IprAccess                    0      0.00%    100.00% # attempts to use FU when none available
system.cpu.iq.fu_full::InstPrefetch                 0      0.00%    100.00% # attempts to use FU when none available
system.cpu.iq.int_alu_accesses                1753172                       # Number of integer alu accesses
system.cpu.iq.int_inst_queue_reads            3147127                       # Number of integer instruction queue reads
system.cpu.iq.int_inst_queue_wakeup_accesses       770975                       # Number of integer instruction queue wakeup accesses
system.cpu.iq.int_inst_queue_writes           1166567                       # Number of integer instruction queue writes
system.cpu.iq.iqInstsAdded                     940276                       # Number of instructions added to the IQ (excludes non-spec)
system.cpu.iq.iqInstsIssued                    853199                       # Number of instructions issued
system.cpu.iq.iqNonSpecInstsAdded                   2                       # Number of non-speculative instructions added to the IQ
system.cpu.iq.iqSquashedInstsExamined          309751                       # Number of squashed instructions iterated over during squash; mainly for profiling
system.cpu.iq.iqSquashedInstsIssued             12298                       # Number of squashed instructions issued
system.cpu.iq.iqSquashedNonSpecRemoved              2                       # Number of squashed non-spec instructions that were removed
system.cpu.iq.iqSquashedOperandsExamined       415666                       # Number of squashed operands that are examined and possibly removed from graph
system.cpu.iq.issued_per_cycle::samples        559480                       # Number of insts issued each cycle
system.cpu.iq.issued_per_cycle::mean         1.524986                       # Number of insts issued each cycle
system.cpu.iq.issued_per_cycle::stdev        1.840787                       # Number of insts issued each cycle
system.cpu.iq.issued_per_cycle::underflows            0      0.00%      0.00% # Number of insts issued each cycle
system.cpu.iq.issued_per_cycle::0              266390     47.61%     47.61% # Number of insts issued each cycle
system.cpu.iq.issued_per_cycle::1               78157     13.97%     61.58% # Number of insts issued each cycle
system.cpu.iq.issued_per_cycle::2               51619      9.23%     70.81% # Number of insts issued each cycle
system.cpu.iq.issued_per_cycle::3               48053      8.59%     79.40% # Number of insts issued each cycle
system.cpu.iq.issued_per_cycle::4               63355     11.32%     90.72% # Number of insts issued each cycle
system.cpu.iq.issued_per_cycle::5               40026      7.15%     97.88% # Number of insts issued each cycle
system.cpu.iq.issued_per_cycle::6                9662      1.73%     99.60% # Number of insts issued each cycle
system.cpu.iq.issued_per_cycle::7                1621      0.29%     99.89% # Number of insts issued each cycle
system.cpu.iq.issued_per_cycle::8                 597      0.11%    100.00% # Number of insts issued each cycle
system.cpu.iq.issued_per_cycle::overflows            0      0.00%    100.00% # Number of insts issued each cycle
system.cpu.iq.issued_per_cycle::min_value            0                       # Number of insts issued each cycle
system.cpu.iq.issued_per_cycle::max_value            8                       # Number of insts issued each cycle
system.cpu.iq.issued_per_cycle::total          559480                       # Number of insts issued each cycle
system.cpu.iq.rate                           1.432782                       # Inst issue rate
system.cpu.iq.vec_alu_accesses                      0                       # Number of vector alu accesses
system.cpu.iq.vec_inst_queue_reads                  0                       # Number of vector instruction queue reads
system.cpu.iq.vec_inst_queue_wakeup_accesses            0                       # Number of vector instruction queue wakeup accesses
system.cpu.iq.vec_inst_queue_writes                 0                       # Number of vector instruction queue writes
system.cpu.memDep0.conflictingLoads               654                       # Number of conflicting loads.
system.cpu.memDep0.conflictingStores              317                       # Number of conflicting stores.
system.cpu.memDep0.insertedLoads                66520                       # Number of loads inserted to the mem dependence unit.
system.cpu.memDep0.insertedStores               28455                       # Number of stores inserted to the mem dependence unit.
system.cpu.memDep1.conflictingLoads              1120                       # Number of conflicting loads.
system.cpu.memDep1.conflictingStores              533                       # Number of conflicting stores.
system.cpu.memDep1.insertedLoads                66859                       # Number of loads inserted to the mem dependence unit.
system.cpu.memDep1.insertedStores               28619                       # Number of stores inserted to the mem dependence unit.
system.cpu.misc_regfile_reads                  351258                       # number of misc regfile reads
system.cpu.numCycles                           595484                       # number of cpu cycles simulated
system.cpu.numWorkItemsCompleted                    0                       # number of work items this cpu completed
system.cpu.numWorkItemsStarted                      0                       # number of work items this cpu started
system.cpu.timesIdled                             655                       # Number of times that the entire CPU went into an idle state and unscheduled itself
system.cpu.workload0.numSyscalls                   58                       # Number of system calls
system.cpu.workload1.numSyscalls                   58                       # Number of system calls
system.membus.snoop_filter.hit_multi_requests            0                       # Number of requests hitting in the snoop filter with multiple (>1) holders of the requested data.
system.membus.snoop_filter.hit_multi_snoops            0                       # Number of snoops hitting in the snoop filter with multiple (>1) holders of the requested data.
system.membus.snoop_filter.hit_single_requests            0                       # Number of requests hitting in the snoop filter with a single holder of the requested data.
system.membus.snoop_filter.hit_single_snoops            0                       # Number of snoops hitting in the snoop filter with a single holder of the requested data.
system.membus.snoop_filter.tot_requests          6336                       # Total number of requests made to the snoop filter.
system.membus.snoop_filter.tot_snoops               0                       # Total number of snoops made to the snoop filter.
system.tol2bus.snoop_filter.hit_multi_requests           16                       # Number of requests hitting in the snoop filter with multiple (>1) holders of the requested data.
system.tol2bus.snoop_filter.hit_multi_snoops            0                       # Number of snoops hitting in the snoop filter with multiple (>1) holders of the requested data.
system.tol2bus.snoop_filter.hit_single_requests        11757                       # Number of requests hitting in the snoop filter with a single holder of the requested data.
system.tol2bus.snoop_filter.hit_single_snoops            0                       # Number of snoops hitting in the snoop filter with a single holder of the requested data.
system.tol2bus.snoop_filter.tot_requests        24268                       # Total number of requests made to the snoop filter.
system.tol2bus.snoop_filter.tot_snoops              0                       # Total number of snoops made to the snoop filter.
sim_insts                                      336433                       # Number of instructions simulated
sim_ops                                        630424                       # Number of ops (including micro ops) simulated
host_inst_rate                                  18355                       # Simulator instruction rate (inst/s)
host_op_rate                                    34394                       # Simulator op (including micro ops) rate (op/s)
system.clk_domain.clock                          1000                       # Clock period in ticks
system.cpu.branchPred.lookups                  117712                       # Number of BP lookups
system.cpu.branchPred.condPredicted             97779                       # Number of conditional branches predicted
system.cpu.branchPred.condIncorrect             10464                       # Number of conditional branches incorrect
system.cpu.branchPred.BTBLookups                37694                       # Number of BTB lookups
system.cpu.branchPred.BTBHits                   32708                       # Number of BTB hits
system.cpu.branchPred.BTBHitPct             86.772431                       # BTB Hit Percentage
system.cpu.branchPred.RASUsed                    5135                       # Number of times the RAS was used to get a target.
system.cpu.branchPred.RASIncorrect                  1                       # Number of incorrect RAS predictions.
system.cpu.branchPred.indirectLookups            2837                       # Number of indirect predictor lookups.
system.cpu.branchPred.indirectHits                748                       # Number of indirect target hits.
system.cpu.branchPred.indirectMisses             2089                       # Number of indirect misses.
system.cpu.branchPred.indirectMispredicted          780                       # Number of mispredicted indirect branches.
system.cpu.branchPred.power_state.pwrStateResidencyTicks::UNDEFINED    297741500                       # Cumulative time (in ticks) in various power states
system.cpu.commit.commitSquashedInsts          290619                       # The number of squashed insts skipped by commit
system.cpu.commit.branchMispredicts              8411                       # The number of times a branch was mispredicted
system.cpu.commit.numCommittedDist::samples       556971                       # Number of insts commited each cycle
system.cpu.commit.numCommittedDist::mean     1.131879                       # Number of insts commited each cycle
system.cpu.commit.numCommittedDist::stdev     2.280199                       # Number of insts commited each cycle
system.cpu.commit.numCommittedDist::underflows            0      0.00%      0.00% # Number of insts commited each cycle
system.cpu.commit.numCommittedDist::0          393630     70.67%     70.67% # Number of insts commited each cycle
system.cpu.commit.numCommittedDist::1           41258      7.41%     78.08% # Number of insts commited each cycle
system.cpu.commit.numCommittedDist::2           27489      4.94%     83.02% # Number of insts commited each cycle
system.cpu.commit.numCommittedDist::3           27424      4.92%     87.94% # Number of insts commited each cycle
system.cpu.commit.numCommittedDist::4           11764      2.11%     90.05% # Number of insts commited each cycle
system.cpu.commit.numCommittedDist::5            7140      1.28%     91.33% # Number of insts commited each cycle
system.cpu.commit.numCommittedDist::6            5082      0.91%     92.25% # Number of insts commited each cycle
system.cpu.commit.numCommittedDist::7            6804      1.22%     93.47% # Number of insts commited each cycle
system.cpu.commit.numCommittedDist::8           36380      6.53%    100.00% # Number of insts commited each cycle
system.cpu.commit.numCommittedDist::overflows            0      0.00%    100.00% # Number of insts commited each cycle
system.cpu.commit.numCommittedDist::min_value            0                       # Number of insts commited each cycle
system.cpu.commit.numCommittedDist::max_value            8                       # Number of insts commited each cycle
system.cpu.commit.numCommittedDist::total       556971                       # Number of insts commited each cycle
system.cpu.commit.instsCommitted::0            168221                       # Number of instructions committed
system.cpu.commit.instsCommitted::1            168212                       # Number of instructions committed
system.cpu.commit.instsCommitted::total        336433                       # Number of instructions committed
system.cpu.commit.opsCommitted::0              315217                       # Number of ops (including micro ops) committed
system.cpu.commit.opsCommitted::1              315207                       # Number of ops (including micro ops) committed
system.cpu.commit.opsCommitted::total          630424                       # Number of ops (including micro ops) committed
system.cpu.commit.memRefs::0                    62129                       # Number of memory references committed
system.cpu.commit.memRefs::1                    62128                       # Number of memory references committed
system.cpu.commit.memRefs::total               124257                       # Number of memory references committed
system.cpu.commit.loads::0                      43573                       # Number of loads committed
system.cpu.commit.loads::1                      43572                       # Number of loads committed
system.cpu.commit.loads::total                  87145                       # Number of loads committed
system.cpu.commit.amos::0                           0                       # Number of atomic instructions committed
system.cpu.commit.amos::1                           0                       # Number of atomic instructions committed
system.cpu.commit.amos::total                       0                       # Number of atomic instructions committed
system.cpu.commit.membars::0                        0                       # Number of memory barriers committed
system.cpu.commit.membars::1                        0                       # Number of memory barriers committed
system.cpu.commit.membars::total                    0                       # Number of memory barriers committed
system.cpu.commit.branches::0                   32746                       # Number of branches committed
system.cpu.commit.branches::1                   32746                       # Number of branches committed
system.cpu.commit.branches::total               65492                       # Number of branches committed
system.cpu.commit.vector::0                         0                       # Number of committed Vector instructions.
system.cpu.commit.vector::1                         0                       # Number of committed Vector instructions.
system.cpu.commit.vector::total                     0                       # Number of committed Vector instructions.
system.cpu.commit.floating::0                   12503                       # Number of committed floating point instructions.
system.cpu.commit.floating::1                   12503                       # Number of committed floating point instructions.
system.cpu.commit.floating::total               25006                       # Number of committed floating point instructions.
system.cpu.commit.integer::0                   304396                       # Number of committed integer instructions.
system.cpu.commit.integer::1                   304386                       # Number of committed integer instructions.
system.cpu.commit.integer::total               608782                       # Number of committed integer instructions.
system.cpu.commit.functionCalls::0               1402                       # Number of function calls committed.
system.cpu.commit.functionCalls::1               1402                       # Number of function calls committed.
system.cpu.commit.functionCalls::total           2804                       # Number of function calls committed.
system.cpu.commit.committedInstType_0::No_OpClass         3948      1.25%      1.25% # Class of committed instruction
system.cpu.commit.committedInstType_0::IntAlu       239139     75.86%     77.12% # Class of committed instruction
system.cpu.commit.committedInstType_0::IntMult           23      0.01%     77.12% # Class of committed instruction
system.cpu.commit.committedInstType_0::IntDiv         2053      0.65%     77.78% # Class of committed instruction
system.cpu.commit.committedInstType_0::FloatAdd          410      0.13%     77.91% # Class of committed instruction
system.cpu.commit.committedInstType_0::FloatCmp            0      0.00%     77.91% # Class of committed instruction
system.cpu.commit.committedInstType_0::FloatCvt            0      0.00%     77.91% # Class of committed instruction
system.cpu.commit.committedInstType_0::FloatMult            0      0.00%     77.91% # Class of committed instruction
system.cpu.commit.committedInstType_0::FloatMultAcc            0      0.00%     77.91% # Class of committed instruction
system.cpu.commit.committedInstType_0::FloatDiv            0      0.00%     77.91% # Class of committed instruction
system.cpu.commit.committedInstType_0::FloatMisc            0      0.00%     77.91% # Class of committed instruction
system.cpu.commit.committedInstType_0::FloatSqrt            0      0.00%     77.91% # Class of committed instruction
system.cpu.commit.committedInstType_0::SimdAdd         1096      0.35%     78.25% # Class of committed instruction
system.cpu.commit.committedInstType_0::SimdAddAcc            0      0.00%     78.25% # Class of committed instruction
system.cpu.commit.committedInstType_0::SimdAlu         1871      0.59%     78.85% # Class of committed instruction
system.cpu.commit.committedInstType_0::SimdCmp            0      0.00%     78.85% # Class of committed instruction
system.cpu.commit.committedInstType_0::SimdCvt         2342      0.74%     79.59% # Class of committed instruction
system.cpu.commit.committedInstType_0::SimdMisc         1727      0.55%     80.14% # Class of committed instruction
system.cpu.commit.committedInstType_0::SimdMult            0      0.00%     80.14% # Class of committed instruction
system.cpu.commit.committedInstType_0::SimdMultAcc            0      0.00%     80.14% # Class of committed instruction
system.cpu.commit.committedInstType_0::SimdShift          479      0.15%     80.29% # Class of committed instruction
system.cpu.commit.committedInstType_0::SimdShiftAcc            0      0.00%     80.29% # Class of committed instruction
system.cpu.commit.committedInstType_0::SimdDiv            0      0.00%     80.29% # Class of committed instruction
system.cpu.commit.committedInstType_0::SimdSqrt            0      0.00%     80.29% # Class of committed instruction
system.cpu.commit.committedInstType_0::SimdFloatAdd            0      0.00%     80.29% # Class of committed instruction
system.cpu.commit.committedInstType_0::SimdFloatAlu            0      0.00%     80.29% # Class of committed instruction
system.cpu.commit.committedInstType_0::SimdFloatCmp            0      0.00%     80.29% # Class of committed instruction
system.cpu.commit.committedInstType_0::SimdFloatCvt            0      0.00%     80.29% # Class of committed instruction
system.cpu.commit.committedInstType_0::SimdFloatDiv            0      0.00%     80.29% # Class of committed instruction
system.cpu.commit.committedInstType_0::SimdFloatMisc            0      0.00%     80.29% # Class of committed instruction
system.cpu.commit.committedInstType_0::SimdFloatMult            0      0.00%     80.29% # Class of committed instruction
system.cpu.commit.committedInstType_0::SimdFloatMultAcc            0      0.00%     80.29% # Class of committed instruction
system.cpu.commit.committedInstType_0::SimdFloatSqrt            0      0.00%     80.29% # Class of committed instruction
system.cpu.commit.committedInstType_0::SimdReduceAdd            0      0.00%     80.29% # Class of committed instruction
system.cpu.commit.committedInstType_0::SimdReduceAlu            0      0.00%     80.29% # Class of committed instruction
system.cpu.commit.committedInstType_0::SimdReduceCmp            0      0.00%     80.29% # Class of committed instruction
system.cpu.commit.committedInstType_0::SimdFloatReduceAdd            0      0.00%     80.29% # Class of committed instruction
system.cpu.commit.committedInstType_0::SimdFloatReduceCmp            0      0.00%     80.29% # Class of committed instruction
system.cpu.commit.committedInstType_0::SimdAes            0      0.00%     80.29% # Class of committed instruction
system.cpu.commit.committedInstType_0::SimdAesMix            0      0.00%     80.29% # Class of committed instruction
system.cpu.commit.committedInstType_0::SimdSha1Hash            0      0.00%     80.29% # Class of committed instruction
system.cpu.commit.committedInstType_0::SimdSha1Hash2            0      0.00%     80.29% # Class of committed instruction
system.cpu.commit.committedInstType_0::SimdSha256Hash            0      0.00%     80.29% # Class of committed instruction
system.cpu.commit.committedInstType_0::SimdSha256Hash2            0      0.00%     80.29% # Class of committed instruction
system.cpu.commit.committedInstType_0::SimdShaSigma2            0      0.00%     80.29% # Class of committed instruction
system.cpu.commit.committedInstType_0::SimdShaSigma3            0      0.00%     80.29% # Class of committed instruction
system.cpu.commit.committedInstType_0::SimdPredAlu            0      0.00%     80.29% # Class of committed instruction
system.cpu.commit.committedInstType_0::MemRead        40981     13.00%     93.29% # Class of committed instruction
system.cpu.commit.committedInstType_0::MemWrite        16902      5.36%     98.65% # Class of committed instruction
system.cpu.commit.committedInstType_0::FloatMemRead         2592      0.82%     99.48% # Class of committed instruction
system.cpu.commit.committedInstType_0::FloatMemWrite         1654      0.52%    100.00% # Class of committed instruction
system.cpu.commit.committedInstType_0::IprAccess            0      0.00%    100.00% # Class of committed instruction
system.cpu.commit.committedInstType_0::InstPrefetch            0      0.00%    100.00% # Class of committed instruction
system.cpu.commit.committedInstType_0::total       315217                       # Class of committed instruction
system.cpu.commit.committedInstType_1::No_OpClass         3948      1.25%      1.25% # Class of committed instruction
system.cpu.commit.committedInstType_1::IntAlu       239130     75.86%     77.12% # Class of committed instruction
system.cpu.commit.committedInstType_1::IntMult           23      0.01%     77.12% # Class of committed instruction
system.cpu.commit.committedInstType_1::IntDiv         2053      0.65%     77.78% # Class of committed instruction
system.cpu.commit.committedInstType_1::FloatAdd          410      0.13%     77.91% # Class of committed instruction
system.cpu.commit.committedInstType_1::FloatCmp            0      0.00%     77.91% # Class of committed instruction
system.cpu.commit.committedInstType_1::FloatCvt            0      0.00%     77.91% # Class of committed instruction
system.cpu.commit.committedInstType_1::FloatMult            0      0.00%     77.91% # Class of committed instruction
system.cpu.commit.committedInstType_1::FloatMultAcc            0      0.00%     77.91% # Class of committed instruction
system.cpu.commit.committedInstType_1::FloatDiv            0      0.00%     77.91% # Class of committed instruction
system.cpu.commit.committedInstType_1::FloatMisc            0      0.00%     77.91% # Class of committed instruction
system.cpu.commit.committedInstType_1::FloatSqrt            0      0.00%     77.91% # Class of committed instruction
system.cpu.commit.committedInstType_1::SimdAdd         1096      0.35%     78.25% # Class of committed instruction
system.cpu.commit.committedInstType_1::SimdAddAcc            0      0.00%     78.25% # Class of committed instruction
system.cpu.commit.committedInstType_1::SimdAlu         1871      0.59%     78.85% # Class of committed instruction
system.cpu.commit.committedInstType_1::SimdCmp            0      0.00%     78.85% # Class of committed instruction
system.cpu.commit.committedInstType_1::SimdCvt         2342      0.74%     79.59% # Class of committed instruction
system.cpu.commit.committedInstType_1::SimdMisc         1727      0.55%     80.14% # Class of committed instruction
system.cpu.commit.committedInstType_1::SimdMult            0      0.00%     80.14% # Class of committed instruction
system.cpu.commit.committedInstType_1::SimdMultAcc            0      0.00%     80.14% # Class of committed instruction
system.cpu.commit.committedInstType_1::SimdShift          479      0.15%     80.29% # Class of committed instruction
system.cpu.commit.committedInstType_1::SimdShiftAcc            0      0.00%     80.29% # Class of committed instruction
system.cpu.commit.committedInstType_1::SimdDiv            0      0.00%     80.29% # Class of committed instruction
system.cpu.commit.committedInstType_1::SimdSqrt            0      0.00%     80.29% # Class of committed instruction
system.cpu.commit.committedInstType_1::SimdFloatAdd            0      0.00%     80.29% # Class of committed instruction
system.cpu.commit.committedInstType_1::SimdFloatAlu            0      0.00%     80.29% # Class of committed instruction
system.cpu.commit.committedInstType_1::SimdFloatCmp            0      0.00%     80.29% # Class of committed instruction
system.cpu.commit.committedInstType_1::SimdFloatCvt            0      0.00%     80.29% # Class of committed instruction
system.cpu.commit.committedInstType_1::SimdFloatDiv            0      0.00%     80.29% # Class of committed instruction
system.cpu.commit.committedInstType_1::SimdFloatMisc            0      0.00%     80.29% # Class of committed instruction
system.cpu.commit.committedInstType_1::SimdFloatMult            0      0.00%     80.29% # Class of committed instruction
system.cpu.commit.committedInstType_1::SimdFloatMultAcc            0      0.00%     80.29% # Class of committed instruction
system.cpu.commit.committedInstType_1::SimdFloatSqrt            0      0.00%     80.29% # Class of committed instruction
system.cpu.commit.committedInstType_1::SimdReduceAdd            0      0.00%     80.29% # Class of committed instruction
system.cpu.commit.committedInstType_1::SimdReduceAlu            0      0.00%     80.29% # Class of committed instruction
system.cpu.commit.committedInstType_1::SimdReduceCmp            0      0.00%     80.29% # Class of committed instruction
system.cpu.commit.committedInstType_1::SimdFloatReduceAdd            0      0.00%     80.29% # Class of committed instruction
system.cpu.commit.committedInstType_1::SimdFloatReduceCmp            0      0.00%     80.29% # Class of committed instruction
system.cpu.commit.committedInstType_1::SimdAes            0      0.00%     80.29% # Class of committed instruction
system.cpu.commit.committedInstType_1::SimdAesMix            0      0.00%     80.29% # Class of committed instruction
system.cpu.commit.committedInstType_1::SimdSha1Hash            0      0.00%     80.29% # Class of committed instruction
system.cpu.commit.committedInstType_1::SimdSha1Hash2            0      0.00%     80.29% # Class of committed instruction
system.cpu.commit.committedInstType_1::SimdSha256Hash            0      0.00%     80.29% # Class of committed instruction
system.cpu.commit.committedInstType_1::SimdSha256Hash2            0      0.00%     80.29% # Class of committed instruction
system.cpu.commit.committedInstType_1::SimdShaSigma2            0      0.00%     80.29% # Class of committed instruction
system.cpu.commit.committedInstType_1::SimdShaSigma3            0      0.00%     80.29% # Class of committed instruction
system.cpu.commit.committedInstType_1::SimdPredAlu            0      0.00%     80.29% # Class of committed instruction
system.cpu.commit.committedInstType_1::MemRead        40980     13.00%     93.29% # Class of committed instruction
system.cpu.commit.committedInstType_1::MemWrite        16902      5.36%     98.65% # Class of committed instruction
system.cpu.commit.committedInstType_1::FloatMemRead         2592      0.82%     99.48% # Class of committed instruction
system.cpu.commit.committedInstType_1::FloatMemWrite         1654      0.52%    100.00% # Class of committed instruction
system.cpu.commit.committedInstType_1::IprAccess            0      0.00%    100.00% # Class of committed instruction
system.cpu.commit.committedInstType_1::InstPrefetch            0      0.00%    100.00% # Class of committed instruction
system.cpu.commit.committedInstType_1::total       315207                       # Class of committed instruction
system.cpu.commit.committedInstType::total       630424      0.00%      0.00% # Class of committed instruction
system.cpu.commit.commitEligibleSamples         36380                       # number cycles where commit BW limit reached
system.cpu.dcache.demand_hits::.cpu.data       126391                       # number of demand (read+write) hits
system.cpu.dcache.demand_hits::total           126391                       # number of demand (read+write) hits
system.cpu.dcache.overall_hits::.cpu.data       126391                       # number of overall hits
system.cpu.dcache.overall_hits::total          126391                       # number of overall hits
system.cpu.dcache.demand_misses::.cpu.data        22857                       # number of demand (read+write) misses
system.cpu.dcache.demand_misses::total          22857                       # number of demand (read+write) misses
system.cpu.dcache.overall_misses::.cpu.data        22857                       # number of overall misses
system.cpu.dcache.overall_misses::total         22857                       # number of overall misses
system.cpu.dcache.demand_miss_latency::.cpu.data   1040507854                       # number of demand (read+write) miss cycles
system.cpu.dcache.demand_miss_latency::total   1040507854                       # number of demand (read+write) miss cycles
system.cpu.dcache.overall_miss_latency::.cpu.data   1040507854                       # number of overall miss cycles
system.cpu.dcache.overall_miss_latency::total   1040507854                       # number of overall miss cycles
system.cpu.dcache.demand_accesses::.cpu.data       149248                       # number of demand (read+write) accesses
system.cpu.dcache.demand_accesses::total       149248                       # number of demand (read+write) accesses
system.cpu.dcache.overall_accesses::.cpu.data       149248                       # number of overall (read+write) accesses
system.cpu.dcache.overall_accesses::total       149248                       # number of overall (read+write) accesses
system.cpu.dcache.demand_miss_rate::.cpu.data     0.153148                       # miss rate for demand accesses
system.cpu.dcache.demand_miss_rate::total     0.153148                       # miss rate for demand accesses
system.cpu.dcache.overall_miss_rate::.cpu.data     0.153148                       # miss rate for overall accesses
system.cpu.dcache.overall_miss_rate::total     0.153148                       # miss rate for overall accesses
system.cpu.dcache.demand_avg_miss_latency::.cpu.data 45522.503128                       # average overall miss latency
system.cpu.dcache.demand_avg_miss_latency::total 45522.503128                       # average overall miss latency
system.cpu.dcache.overall_avg_miss_latency::.cpu.data 45522.503128                       # average overall miss latency
system.cpu.dcache.overall_avg_miss_latency::total 45522.503128                       # average overall miss latency
system.cpu.dcache.blocked_cycles::no_mshrs           16                       # number of cycles access was blocked
system.cpu.dcache.blocked_cycles::no_targets        66774                       # number of cycles access was blocked
system.cpu.dcache.blocked::no_mshrs                 5                       # number of cycles access was blocked
system.cpu.dcache.blocked::no_targets             938                       # number of cycles access was blocked
system.cpu.dcache.avg_blocked_cycles::no_mshrs     3.200000                       # average number of cycles each access was blocked
system.cpu.dcache.avg_blocked_cycles::no_targets    71.187633                       # average number of cycles each access was blocked
system.cpu.dcache.writebacks::.writebacks         9618                       # number of writebacks
system.cpu.dcache.writebacks::total              9618                       # number of writebacks
system.cpu.dcache.demand_mshr_hits::.cpu.data        12997                       # number of demand (read+write) MSHR hits
system.cpu.dcache.demand_mshr_hits::total        12997                       # number of demand (read+write) MSHR hits
system.cpu.dcache.overall_mshr_hits::.cpu.data        12997                       # number of overall MSHR hits
system.cpu.dcache.overall_mshr_hits::total        12997                       # number of overall MSHR hits
system.cpu.dcache.demand_mshr_misses::.cpu.data         9860                       # number of demand (read+write) MSHR misses
system.cpu.dcache.demand_mshr_misses::total         9860                       # number of demand (read+write) MSHR misses
system.cpu.dcache.overall_mshr_misses::.cpu.data         9860                       # number of overall MSHR misses
system.cpu.dcache.overall_mshr_misses::total         9860                       # number of overall MSHR misses
system.cpu.dcache.demand_mshr_miss_latency::.cpu.data    390058355                       # number of demand (read+write) MSHR miss cycles
system.cpu.dcache.demand_mshr_miss_latency::total    390058355                       # number of demand (read+write) MSHR miss cycles
system.cpu.dcache.overall_mshr_miss_latency::.cpu.data    390058355                       # number of overall MSHR miss cycles
system.cpu.dcache.overall_mshr_miss_latency::total    390058355                       # number of overall MSHR miss cycles
system.cpu.dcache.demand_mshr_miss_rate::.cpu.data     0.066065                       # mshr miss rate for demand accesses
system.cpu.dcache.demand_mshr_miss_rate::total     0.066065                       # mshr miss rate for demand accesses
system.cpu.dcache.overall_mshr_miss_rate::.cpu.data     0.066065                       # mshr miss rate for overall accesses
system.cpu.dcache.overall_mshr_miss_rate::total     0.066065                       # mshr miss rate for overall accesses
system.cpu.dcache.demand_avg_mshr_miss_latency::.cpu.data 39559.670892                       # average overall mshr miss latency
system.cpu.dcache.demand_avg_mshr_miss_latency::total 39559.670892                       # average overall mshr miss latency
system.cpu.dcache.overall_avg_mshr_miss_latency::.cpu.data 39559.670892                       # average overall mshr miss latency
system.cpu.dcache.overall_avg_mshr_miss_latency::total 39559.670892                       # average overall mshr miss latency
system.cpu.dcache.replacements                    315                       # number of replacements
system.cpu.dcache.expired                        9303                       # dead blocks evicted
system.cpu.dcache.ReadReq_hits::.cpu.data        91095                       # number of ReadReq hits
system.cpu.dcache.ReadReq_hits::total           91095                       # number of ReadReq hits
system.cpu.dcache.ReadReq_misses::.cpu.data        21031                       # number of ReadReq misses
system.cpu.dcache.ReadReq_misses::total         21031                       # number of ReadReq misses
system.cpu.dcache.ReadReq_miss_latency::.cpu.data    938743500                       # number of ReadReq miss cycles
system.cpu.dcache.ReadReq_miss_latency::total    938743500                       # number of ReadReq miss cycles
system.cpu.dcache.ReadReq_accesses::.cpu.data       112126                       # number of ReadReq accesses(hits+misses)
system.cpu.dcache.ReadReq_accesses::total       112126                       # number of ReadReq accesses(hits+misses)
system.cpu.dcache.ReadReq_miss_rate::.cpu.data     0.187566                       # miss rate for ReadReq accesses
system.cpu.dcache.ReadReq_miss_rate::total     0.187566                       # miss rate for ReadReq accesses
system.cpu.dcache.ReadReq_avg_miss_latency::.cpu.data 44636.179925                       # average ReadReq miss latency
system.cpu.dcache.ReadReq_avg_miss_latency::total 44636.179925                       # average ReadReq miss latency
system.cpu.dcache.ReadReq_mshr_hits::.cpu.data        12986                       # number of ReadReq MSHR hits
system.cpu.dcache.ReadReq_mshr_hits::total        12986                       # number of ReadReq MSHR hits
system.cpu.dcache.ReadReq_mshr_misses::.cpu.data         8045                       # number of ReadReq MSHR misses
system.cpu.dcache.ReadReq_mshr_misses::total         8045                       # number of ReadReq MSHR misses
system.cpu.dcache.ReadReq_mshr_miss_latency::.cpu.data    290343500                       # number of ReadReq MSHR miss cycles
system.cpu.dcache.ReadReq_mshr_miss_latency::total    290343500                       # number of ReadReq MSHR miss cycles
system.cpu.dcache.ReadReq_mshr_miss_rate::.cpu.data     0.071750                       # mshr miss rate for ReadReq accesses
system.cpu.dcache.ReadReq_mshr_miss_rate::total     0.071750                       # mshr miss rate for ReadReq accesses
system.cpu.dcache.ReadReq_avg_mshr_miss_latency::.cpu.data 36089.931635                       # average ReadReq mshr miss latency
system.cpu.dcache.ReadReq_avg_mshr_miss_latency::total 36089.931635                       # average ReadReq mshr miss latency
system.cpu.dcache.WriteReq_hits::.cpu.data        35296                       # number of WriteReq hits
system.cpu.dcache.WriteReq_hits::total          35296                       # number of WriteReq hits
system.cpu.dcache.WriteReq_misses::.cpu.data         1826                       # number of WriteReq misses
system.cpu.dcache.WriteReq_misses::total         1826                       # number of WriteReq misses
system.cpu.dcache.WriteReq_miss_latency::.cpu.data    101764354                       # number of WriteReq miss cycles
system.cpu.dcache.WriteReq_miss_latency::total    101764354                       # number of WriteReq miss cycles
system.cpu.dcache.WriteReq_accesses::.cpu.data        37122                       # number of WriteReq accesses(hits+misses)
system.cpu.dcache.WriteReq_accesses::total        37122                       # number of WriteReq accesses(hits+misses)
system.cpu.dcache.WriteReq_miss_rate::.cpu.data     0.049189                       # miss rate for WriteReq accesses
system.cpu.dcache.WriteReq_miss_rate::total     0.049189                       # miss rate for WriteReq accesses
system.cpu.dcache.WriteReq_avg_miss_latency::.cpu.data 55730.752464                       # average WriteReq miss latency
system.cpu.dcache.WriteReq_avg_miss_latency::total 55730.752464                       # average WriteReq miss latency
system.cpu.dcache.WriteReq_mshr_hits::.cpu.data           11                       # number of WriteReq MSHR hits
system.cpu.dcache.WriteReq_mshr_hits::total           11                       # number of WriteReq MSHR hits
system.cpu.dcache.WriteReq_mshr_misses::.cpu.data         1815                       # number of WriteReq MSHR misses
system.cpu.dcache.WriteReq_mshr_misses::total         1815                       # number of WriteReq MSHR misses
system.cpu.dcache.WriteReq_mshr_miss_latency::.cpu.data     99714855                       # number of WriteReq MSHR miss cycles
system.cpu.dcache.WriteReq_mshr_miss_latency::total     99714855                       # number of WriteReq MSHR miss cycles
system.cpu.dcache.WriteReq_mshr_miss_rate::.cpu.data     0.048893                       # mshr miss rate for WriteReq accesses
system.cpu.dcache.WriteReq_mshr_miss_rate::total     0.048893                       # mshr miss rate for WriteReq accesses
system.cpu.dcache.WriteReq_avg_mshr_miss_latency::.cpu.data 54939.314050                       # average WriteReq mshr miss latency
system.cpu.dcache.WriteReq_avg_mshr_miss_latency::total 54939.314050                       # average WriteReq mshr miss latency
system.cpu.dcache.power_state.pwrStateResidencyTicks::UNDEFINED    297741500                       # Cumulative time (in ticks) in various power states
system.cpu.dcache.tags.tagsinuse           207.719348                       # Cycle average of tags in use
system.cpu.dcache.tags.total_refs              136251                       # Total number of references to valid blocks.
system.cpu.dcache.tags.sampled_refs              9860                       # Sample count of references to valid blocks.
system.cpu.dcache.tags.avg_refs             13.818560                       # Average number of references to valid blocks.
system.cpu.dcache.tags.warmup_cycle            191500                       # Cycle when the warmup percentage was hit.
system.cpu.dcache.tags.occ_blocks::.cpu.data   207.719348                       # Average occupied blocks per requestor
system.cpu.dcache.tags.occ_percent::.cpu.data     0.405702                       # Average percentage of cache occupancy
system.cpu.dcache.tags.occ_percent::total     0.405702                       # Average percentage of cache occupancy
system.cpu.dcache.tags.occ_task_id_blocks::1024          242                       # Occupied blocks per task id
system.cpu.dcache.tags.age_task_id_blocks_1024::0          138                       # Occupied blocks per task id
system.cpu.dcache.tags.age_task_id_blocks_1024::1          104                       # Occupied blocks per task id
system.cpu.dcache.tags.occ_task_id_percent::1024     0.472656                       # Percentage of cache occupancy per task id
system.cpu.dcache.tags.tag_accesses           1203844                       # Number of tag accesses
system.cpu.dcache.tags.data_accesses          1203844                       # Number of data accesses
system.cpu.dcache.tags.power_state.pwrStateResidencyTicks::UNDEFINED    297741500                       # Cumulative time (in ticks) in various power states
system.cpu.decode.idleCycles                   210174                       # Number of cycles decode is idle
system.cpu.decode.blockedCycles                590896                       # Number of cycles decode is blocked
system.cpu.decode.runCycles                    241607                       # Number of cycles decode is running
system.cpu.decode.unblockCycles                 67510                       # Number of cycles decode is unblocking
system.cpu.decode.squashCycles                   8773                       # Number of cycles decode is squashing
system.cpu.decode.branchResolved                30794                       # Number of times decode resolved a  branch
system.cpu.decode.branchMispred                  2135                       # Number of times decode detected a branch misprediction
system.cpu.decode.decodedInsts                 988923                       # Number of instructions handled by decode
system.cpu.decode.squashedInsts                 42068                       # Number of squashed instructions handled by decode
system.cpu.dtb.rdAccesses                      118780                       # TLB accesses on read requests
system.cpu.dtb.wrAccesses                       48828                       # TLB accesses on write requests
system.cpu.dtb.rdMisses                         10537                       # TLB misses on read requests
system.cpu.dtb.wrMisses                           688                       # TLB misses on write requests
system.cpu.dtb.walker.power_state.pwrStateResidencyTicks::UNDEFINED    297741500                       # Cumulative time (in ticks) in various power states
system.cpu.dtb_walker_cache.blocked_cycles::no_mshrs            0                       # number of cycles access was blocked
system.cpu.dtb_walker_cache.blocked_cycles::no_targets            0                       # number of cycles access was blocked
system.cpu.dtb_walker_cache.blocked::no_mshrs            0                       # number of cycles access was blocked
system.cpu.dtb_walker_cache.blocked::no_targets            0                       # number of cycles access was blocked
system.cpu.dtb_walker_cache.avg_blocked_cycles::no_mshrs          nan                       # average number of cycles each access was blocked
system.cpu.dtb_walker_cache.avg_blocked_cycles::no_targets          nan                       # average number of cycles each access was blocked
system.cpu.dtb_walker_cache.replacements            0                       # number of replacements
system.cpu.dtb_walker_cache.expired                 0                       # dead blocks evicted
system.cpu.dtb_walker_cache.power_state.pwrStateResidencyTicks::UNDEFINED    297741500                       # Cumulative time (in ticks) in various power states
system.cpu.dtb_walker_cache.tags.tagsinuse            0                       # Cycle average of tags in use
system.cpu.dtb_walker_cache.tags.total_refs            0                       # Total number of references to valid blocks.
system.cpu.dtb_walker_cache.tags.sampled_refs            0                       # Sample count of references to valid blocks.
system.cpu.dtb_walker_cache.tags.avg_refs          nan                       # Average number of references to valid blocks.
system.cpu.dtb_walker_cache.tags.warmup_cycle            0                       # Cycle when the warmup percentage was hit.
system.cpu.dtb_walker_cache.tags.tag_accesses            0                       # Number of tag accesses
system.cpu.dtb_walker_cache.tags.data_accesses            0                       # Number of data accesses
system.cpu.dtb_walker_cache.tags.power_state.pwrStateResidencyTicks::UNDEFINED    297741500                       # Cumulative time (in ticks) in various power states
system.cpu.fetch.icacheStallCycles               8888                       # Number of cycles fetch is stalled on an Icache miss
system.cpu.fetch.insts                         617300                       # Number of instructions fetch has processed
system.cpu.fetch.branches                      117712                       # Number of branches that fetch encountered
system.cpu.fetch.predictedBranches              38591                       # Number of branches that fetch has predicted taken
system.cpu.fetch.cycles                        489955                       # Number of cycles fetch has run and was not squashing or blocked
system.cpu.fetch.squashCycles                   10842                       # Number of cycles fetch has spent squashing
system.cpu.fetch.tlbCycles                        302                       # Number of cycles fetch has spent waiting for tlb
system.cpu.fetch.miscStallCycles                    7                       # Number of cycles fetch has spent waiting on interrupts,or bad addresses, or out of MSHRs
system.cpu.fetch.cacheLines                    191038                       # Number of cache lines fetched
system.cpu.fetch.icacheSquashes                  1648                       # Number of outstanding Icache misses that were squashed
system.cpu.fetch.tlbSquashes                      122                       # Number of outstanding ITLB misses that were squashed
system.cpu.fetch.SMTDist::samples              559480                       # Number of Cycles each Thread Fetched
system.cpu.fetch.SMTDist::mean               0.338498                       # Number of Cycles each Thread Fetched
system.cpu.fetch.SMTDist::stdev              0.663005                       # Number of Cycles each Thread Fetched
system.cpu.fetch.SMTDist::underflows                0      0.00%      0.00% # Number of Cycles each Thread Fetched
system.cpu.fetch.SMTDist::-1                    60328     10.78%     10.78% # Number of Cycles each Thread Fetched
system.cpu.fetch.SMTDist::0                    249441     44.58%     55.37% # Number of Cycles each Thread Fetched
system.cpu.fetch.SMTDist::1                    249711     44.63%    100.00% # Number of Cycles each Thread Fetched
system.cpu.fetch.SMTDist::2                         0      0.00%    100.00% # Number of Cycles each Thread Fetched
system.cpu.fetch.SMTDist::overflows                 0      0.00%    100.00% # Number of Cycles each Thread Fetched
system.cpu.fetch.SMTDist::min_value                -1                       # Number of Cycles each Thread Fetched
system.cpu.fetch.SMTDist::max_value                 1                       # Number of Cycles each Thread Fetched
system.cpu.fetch.SMTDist::total                559480                       # Number of Cycles each Thread Fetched
system.cpu.fetch.nisnDist::samples             559480                       # Number of instructions fetched each cycle (Total)
system.cpu.fetch.nisnDist::mean              2.085642                       # Number of instructions fetched each cycle (Total)
system.cpu.fetch.nisnDist::stdev             2.897728                       # Number of instructions fetched each cycle (Total)
system.cpu.fetch.nisnDist::underflows               0      0.00%      0.00% # Number of instructions fetched each cycle (Total)
system.cpu.fetch.nisnDist::0                   327783     58.59%     58.59% # Number of instructions fetched each cycle (Total)
system.cpu.fetch.nisnDist::1                    20191      3.61%     62.20% # Number of instructions fetched each cycle (Total)
system.cpu.fetch.nisnDist::2                    19045      3.40%     65.60% # Number of instructions fetched each cycle (Total)
system.cpu.fetch.nisnDist::3                    31680      5.66%     71.26% # Number of instructions fetched each cycle (Total)
system.cpu.fetch.nisnDist::4                    25932      4.64%     75.90% # Number of instructions fetched each cycle (Total)
system.cpu.fetch.nisnDist::5                    32567      5.82%     81.72% # Number of instructions fetched each cycle (Total)
system.cpu.fetch.nisnDist::6                    21940      3.92%     85.64% # Number of instructions fetched each cycle (Total)
system.cpu.fetch.nisnDist::7                    27385      4.89%     90.53% # Number of instructions fetched each cycle (Total)
system.cpu.fetch.nisnDist::8                    52957      9.47%    100.00% # Number of instructions fetched each cycle (Total)
system.cpu.fetch.nisnDist::overflows                0      0.00%    100.00% # Number of instructions fetched each cycle (Total)
system.cpu.fetch.nisnDist::min_value                0                       # Number of instructions fetched each cycle (Total)
system.cpu.fetch.nisnDist::max_value                8                       # Number of instructions fetched each cycle (Total)
system.cpu.fetch.nisnDist::total               559480                       # Number of instructions fetched each cycle (Total)
system.cpu.fetch.branchRate                  0.197674                       # Number of branch fetches per cycle
system.cpu.fetch.rate                        1.036636                       # Number of inst fetches per cycle
system.cpu.icache.demand_hits::.cpu.inst       187637                       # number of demand (read+write) hits
system.cpu.icache.demand_hits::total           187637                       # number of demand (read+write) hits
system.cpu.icache.overall_hits::.cpu.inst       187637                       # number of overall hits
system.cpu.icache.overall_hits::total          187637                       # number of overall hits
system.cpu.icache.demand_misses::.cpu.inst         3400                       # number of demand (read+write) misses
system.cpu.icache.demand_misses::total           3400                       # number of demand (read+write) misses
system.cpu.icache.overall_misses::.cpu.inst         3400                       # number of overall misses
system.cpu.icache.overall_misses::total          3400                       # number of overall misses
system.cpu.icache.demand_miss_latency::.cpu.inst    163611500                       # number of demand (read+write) miss cycles
system.cpu.icache.demand_miss_latency::total    163611500                       # number of demand (read+write) miss cycles
system.cpu.icache.overall_miss_latency::.cpu.inst    163611500                       # number of overall miss cycles
system.cpu.icache.overall_miss_latency::total    163611500                       # number of overall miss cycles
system.cpu.icache.demand_accesses::.cpu.inst       191037                       # number of demand (read+write) accesses
system.cpu.icache.demand_accesses::total       191037                       # number of demand (read+write) accesses
system.cpu.icache.overall_accesses::.cpu.inst       191037                       # number of overall (read+write) accesses
[...]
system.mem_ctrls1.dram.perBankWrBursts::0            0                       # Per bank write bursts
system.mem_ctrls1.dram.perBankWrBursts::1            0                       # Per bank write bursts
system.mem_ctrls1.dram.perBankWrBursts::2            0                       # Per bank write bursts
system.mem_ctrls1.dram.perBankWrBursts::3            0                       # Per bank write bursts
system.mem_ctrls1.dram.perBankWrBursts::4            0                       # Per bank write bursts
system.mem_ctrls1.dram.perBankWrBursts::5            0                       # Per bank write bursts
system.mem_ctrls1.dram.perBankWrBursts::6            0                       # Per bank write bursts
system.mem_ctrls1.dram.perBankWrBursts::7            0                       # Per bank write bursts
system.mem_ctrls1.dram.perBankWrBursts::8            0                       # Per bank write bursts
system.mem_ctrls1.dram.perBankWrBursts::9            0                       # Per bank write bursts
system.mem_ctrls1.dram.perBankWrBursts::10            0                       # Per bank write bursts
system.mem_ctrls1.dram.perBankWrBursts::11            0                       # Per bank write bursts
system.mem_ctrls1.dram.perBankWrBursts::12            0                       # Per bank write bursts
system.mem_ctrls1.dram.perBankWrBursts::13            0                       # Per bank write bursts
system.mem_ctrls1.dram.perBankWrBursts::14            0                       # Per bank write bursts
system.mem_ctrls1.dram.perBankWrBursts::15            0                       # Per bank write bursts
system.mem_ctrls1.dram.perBankWrBursts::16            0                       # Per bank write bursts
system.mem_ctrls1.dram.perBankWrBursts::17            0                       # Per bank write bursts
system.mem_ctrls1.dram.perBankWrBursts::18            0                       # Per bank write bursts
system.mem_ctrls1.dram.perBankWrBursts::19            0                       # Per bank write bursts
system.mem_ctrls1.dram.perBankWrBursts::20            0                       # Per bank write bursts
system.mem_ctrls1.dram.perBankWrBursts::21            0                       # Per bank write bursts
system.mem_ctrls1.dram.perBankWrBursts::22            0                       # Per bank write bursts
system.mem_ctrls1.dram.perBankWrBursts::23            0                       # Per bank write bursts
system.mem_ctrls1.dram.perBankWrBursts::24            0                       # Per bank write bursts
system.mem_ctrls1.dram.perBankWrBursts::25            0                       # Per bank write bursts
system.mem_ctrls1.dram.perBankWrBursts::26            0                       # Per bank write bursts
system.mem_ctrls1.dram.perBankWrBursts::27            0                       # Per bank write bursts
system.mem_ctrls1.dram.perBankWrBursts::28            0                       # Per bank write bursts
system.mem_ctrls1.dram.perBankWrBursts::29            0                       # Per bank write bursts
system.mem_ctrls1.dram.perBankWrBursts::30            0                       # Per bank write bursts
system.mem_ctrls1.dram.perBankWrBursts::31            0                       # Per bank write bursts
system.mem_ctrls1.dram.totQLat               27958172                       # Total ticks spent queuing
system.mem_ctrls1.dram.totBusLat             10599092                       # Total ticks spent in databus transfers
system.mem_ctrls1.dram.totMemAccLat          83600224                       # Total ticks spent from burst creation until serviced by the DRAM
system.mem_ctrls1.dram.avgQLat                8789.11                       # Average queueing delay per DRAM burst
system.mem_ctrls1.dram.avgBusLat              3332.00                       # Average bus latency per DRAM burst
system.mem_ctrls1.dram.avgMemAccLat          26281.11                       # Average memory access latency per DRAM burst
system.mem_ctrls1.dram.readRowHits               2575                       # Number of row buffer hits during reads
system.mem_ctrls1.dram.writeRowHits                 0                       # Number of row buffer hits during writes
system.mem_ctrls1.dram.readRowHitRate           80.95                       # Row buffer hit rate for reads
system.mem_ctrls1.dram.writeRowHitRate            nan                       # Row buffer hit rate for writes
system.mem_ctrls1.dram.bytesPerActivate::samples          602                       # Bytes accessed per row activation
system.mem_ctrls1.dram.bytesPerActivate::mean   337.541528                       # Bytes accessed per row activation
system.mem_ctrls1.dram.bytesPerActivate::gmean   218.211930                       # Bytes accessed per row activation
system.mem_ctrls1.dram.bytesPerActivate::stdev   318.727862                       # Bytes accessed per row activation
system.mem_ctrls1.dram.bytesPerActivate::0-127          133     22.09%     22.09% # Bytes accessed per row activation
system.mem_ctrls1.dram.bytesPerActivate::128-255          182     30.23%     52.33% # Bytes accessed per row activation
system.mem_ctrls1.dram.bytesPerActivate::256-383           81     13.46%     65.78% # Bytes accessed per row activation
system.mem_ctrls1.dram.bytesPerActivate::384-511           51      8.47%     74.25% # Bytes accessed per row activation
system.mem_ctrls1.dram.bytesPerActivate::512-639           39      6.48%     80.73% # Bytes accessed per row activation
system.mem_ctrls1.dram.bytesPerActivate::640-767           18      2.99%     83.72% # Bytes accessed per row activation
system.mem_ctrls1.dram.bytesPerActivate::768-895           16      2.66%     86.38% # Bytes accessed per row activation
system.mem_ctrls1.dram.bytesPerActivate::896-1023           13      2.16%     88.54% # Bytes accessed per row activation
system.mem_ctrls1.dram.bytesPerActivate::1024-1151           69     11.46%    100.00% # Bytes accessed per row activation
system.mem_ctrls1.dram.bytesPerActivate::total          602                       # Bytes accessed per row activation
system.mem_ctrls1.dram.bytesRead               203584                       # Total number of bytes read from DRAM
system.mem_ctrls1.dram.bytesWritten                 0                       # Total number of bytes written to DRAM
system.mem_ctrls1.dram.avgRdBW             683.760913                       # Average DRAM read bandwidth in MiBytes/s
system.mem_ctrls1.dram.avgWrBW                      0                       # Average DRAM write bandwidth in MiBytes/s
system.mem_ctrls1.dram.peakBW                19207.00                       # Theoretical peak bandwidth in MiByte/s
system.mem_ctrls1.dram.busUtil                   3.56                       # Data bus utilization in percentage
system.mem_ctrls1.dram.busUtilRead               3.56                       # Data bus utilization in percentage for reads
system.mem_ctrls1.dram.busUtilWrite              0.00                       # Data bus utilization in percentage for writes
system.mem_ctrls1.dram.pageHitRate              80.95                       # Row buffer hit rate, read and write combined
system.mem_ctrls1.dram.power_state.pwrStateResidencyTicks::UNDEFINED    297741500                       # Cumulative time (in ticks) in various power states
system.mem_ctrls1.dram.rank0.actEnergy   661175.424000                       # Energy for activate commands per rank (pJ)
system.mem_ctrls1.dram.rank0.preEnergy   874877.908800                       # Energy for precharge commands per rank (pJ)
system.mem_ctrls1.dram.rank0.readEnergy  6545028.940800                       # Energy for read commands per rank (pJ)
system.mem_ctrls1.dram.rank0.writeEnergy            0                       # Energy for write commands per rank (pJ)
system.mem_ctrls1.dram.rank0.refreshEnergy 52644349.833600                       # Energy for refresh commands per rank (pJ)
system.mem_ctrls1.dram.rank0.actBackEnergy 227702218.665600                       # Energy for active background per rank (pJ)
system.mem_ctrls1.dram.rank0.preBackEnergy 19408137.638400                       # Energy for precharge background per rank (pJ)
system.mem_ctrls1.dram.rank0.actPowerDownEnergy            0                       # Energy for active power-down per rank (pJ)
system.mem_ctrls1.dram.rank0.prePowerDownEnergy            0                       # Energy for precharge power-down per rank (pJ)
system.mem_ctrls1.dram.rank0.selfRefreshEnergy            0                       # Energy for self refresh per rank (pJ)
system.mem_ctrls1.dram.rank0.totalEnergy 307835788.411200                       # Total energy per rank (pJ)
system.mem_ctrls1.dram.rank0.averagePower  1033.902860                       # Core power per rank (mW)
system.mem_ctrls1.dram.rank0.totalIdleTime            0                       # Total Idle time Per DRAM Rank
system.mem_ctrls1.dram.rank0.pwrStateTime::IDLE     28514223                       # Time in different power states
system.mem_ctrls1.dram.rank0.pwrStateTime::REF     13300000                       # Time in different power states
system.mem_ctrls1.dram.rank0.pwrStateTime::SREF            0                       # Time in different power states
system.mem_ctrls1.dram.rank0.pwrStateTime::PRE_PDN            0                       # Time in different power states
system.mem_ctrls1.dram.rank0.pwrStateTime::ACT    255927277                       # Time in different power states
system.mem_ctrls1.dram.rank0.pwrStateTime::ACT_PDN            0                       # Time in different power states
system.mem_ctrls1.dram.rank1.actEnergy   1228788.288000                       # Energy for activate commands per rank (pJ)
system.mem_ctrls1.dram.rank1.preEnergy   1621219.252800                       # Energy for precharge commands per rank (pJ)
system.mem_ctrls1.dram.rank1.readEnergy  6835264.800000                       # Energy for read commands per rank (pJ)
system.mem_ctrls1.dram.rank1.writeEnergy            0                       # Energy for write commands per rank (pJ)
system.mem_ctrls1.dram.rank1.refreshEnergy 52644349.833600                       # Energy for refresh commands per rank (pJ)
system.mem_ctrls1.dram.rank1.actBackEnergy 212954815.987200                       # Energy for active background per rank (pJ)
system.mem_ctrls1.dram.rank1.preBackEnergy 30739475.289600                       # Energy for precharge background per rank (pJ)
system.mem_ctrls1.dram.rank1.actPowerDownEnergy            0                       # Energy for active power-down per rank (pJ)
system.mem_ctrls1.dram.rank1.prePowerDownEnergy            0                       # Energy for precharge power-down per rank (pJ)
system.mem_ctrls1.dram.rank1.selfRefreshEnergy            0                       # Energy for self refresh per rank (pJ)
system.mem_ctrls1.dram.rank1.totalEnergy 306023913.451200                       # Total energy per rank (pJ)
system.mem_ctrls1.dram.rank1.averagePower  1027.817464                       # Core power per rank (mW)
system.mem_ctrls1.dram.rank1.totalIdleTime            0                       # Total Idle time Per DRAM Rank
system.mem_ctrls1.dram.rank1.pwrStateTime::IDLE     46066440                       # Time in different power states
system.mem_ctrls1.dram.rank1.pwrStateTime::REF     13300000                       # Time in different power states
system.mem_ctrls1.dram.rank1.pwrStateTime::SREF            0                       # Time in different power states
system.mem_ctrls1.dram.rank1.pwrStateTime::PRE_PDN            0                       # Time in different power states
system.mem_ctrls1.dram.rank1.pwrStateTime::ACT    238375060                       # Time in different power states
system.mem_ctrls1.dram.rank1.pwrStateTime::ACT_PDN            0                       # Time in different power states
system.mem_ctrls1.power_state.pwrStateResidencyTicks::UNDEFINED    297741500                       # Cumulative time (in ticks) in various power states
system.membus.trans_dist::ReadResp               4968                       # Transaction distribution
system.membus.trans_dist::ReadExReq              1368                       # Transaction distribution
system.membus.trans_dist::ReadExResp             1368                       # Transaction distribution
system.membus.trans_dist::ReadSharedReq          4968                       # Transaction distribution
system.membus.pkt_count_system.l2.mem_side_port::system.mem_ctrls0.port         6310                       # Packet count per connected requestor and responder (bytes)
system.membus.pkt_count_system.l2.mem_side_port::system.mem_ctrls1.port         6362                       # Packet count per connected requestor and responder (bytes)
system.membus.pkt_count_system.l2.mem_side_port::total        12672                       # Packet count per connected requestor and responder (bytes)
system.membus.pkt_count::total                  12672                       # Packet count per connected requestor and responder (bytes)
system.membus.pkt_size_system.l2.mem_side_port::system.mem_ctrls0.port       201920                       # Cumulative packet size per connected requestor and responder (bytes)
system.membus.pkt_size_system.l2.mem_side_port::system.mem_ctrls1.port       203584                       # Cumulative packet size per connected requestor and responder (bytes)
system.membus.pkt_size_system.l2.mem_side_port::total       405504                       # Cumulative packet size per connected requestor and responder (bytes)
system.membus.pkt_size::total                  405504                       # Cumulative packet size per connected requestor and responder (bytes)
system.membus.snoops                                0                       # Total snoops (count)
system.membus.snoopTraffic                          0                       # Total snoop traffic (bytes)
system.membus.snoop_fanout::samples              6336                       # Request fanout histogram
system.membus.snoop_fanout::mean                    0                       # Request fanout histogram
system.membus.snoop_fanout::stdev                   0                       # Request fanout histogram
system.membus.snoop_fanout::underflows              0      0.00%      0.00% # Request fanout histogram
system.membus.snoop_fanout::0                    6336    100.00%    100.00% # Request fanout histogram
system.membus.snoop_fanout::1                       0      0.00%    100.00% # Request fanout histogram
system.membus.snoop_fanout::overflows               0      0.00%    100.00% # Request fanout histogram
system.membus.snoop_fanout::min_value               0                       # Request fanout histogram
system.membus.snoop_fanout::max_value               0                       # Request fanout histogram
system.membus.snoop_fanout::total                6336                       # Request fanout histogram
system.membus.power_state.pwrStateResidencyTicks::UNDEFINED    297741500                       # Cumulative time (in ticks) in various power states
system.membus.reqLayer4.occupancy             3904986                       # Layer occupancy (ticks)
system.membus.reqLayer4.utilization               1.3                       # Layer utilization (%)
system.membus.reqLayer5.occupancy             3917488                       # Layer occupancy (ticks)
system.membus.reqLayer5.utilization               1.3                       # Layer utilization (%)
system.membus.respLayer1.occupancy           33614835                       # Layer occupancy (ticks)
system.membus.respLayer1.utilization             11.3                       # Layer utilization (%)
system.tol2bus.trans_dist::ReadResp             10695                       # Transaction distribution
system.tol2bus.trans_dist::WritebackDirty         4565                       # Transaction distribution
system.tol2bus.trans_dist::WritebackClean         7192                       # Transaction distribution
system.tol2bus.trans_dist::HardPFReq               45                       # Transaction distribution
system.tol2bus.trans_dist::ReadExReq             1816                       # Transaction distribution
system.tol2bus.trans_dist::ReadExResp            1816                       # Transaction distribution
system.tol2bus.trans_dist::ReadCleanReq          2651                       # Transaction distribution
system.tol2bus.trans_dist::ReadSharedReq         8044                       # Transaction distribution
system.tol2bus.pkt_count_system.cpu.icache.mem_side_port::system.l2.cpu_side_port         7441                       # Packet count per connected requestor and responder (bytes)
system.tol2bus.pkt_count_system.cpu.dcache.mem_side_port::system.l2.cpu_side_port        29338                       # Packet count per connected requestor and responder (bytes)
system.tol2bus.pkt_count::total                 36779                       # Packet count per connected requestor and responder (bytes)
system.tol2bus.pkt_size_system.cpu.icache.mem_side_port::system.l2.cpu_side_port       306560                       # Cumulative packet size per connected requestor and responder (bytes)
system.tol2bus.pkt_size_system.cpu.dcache.mem_side_port::system.l2.cpu_side_port      1246592                       # Cumulative packet size per connected requestor and responder (bytes)
system.tol2bus.pkt_size::total                1553152                       # Cumulative packet size per connected requestor and responder (bytes)
system.tol2bus.snoops                              45                       # Total snoops (count)
system.tol2bus.snoopTraffic                         0                       # Total snoop traffic (bytes)
system.tol2bus.snoop_fanout::samples            12556                       # Request fanout histogram
system.tol2bus.snoop_fanout::mean            0.001274                       # Request fanout histogram
system.tol2bus.snoop_fanout::stdev           0.035676                       # Request fanout histogram
system.tol2bus.snoop_fanout::underflows             0      0.00%      0.00% # Request fanout histogram
system.tol2bus.snoop_fanout::0                  12540     99.87%     99.87% # Request fanout histogram
system.tol2bus.snoop_fanout::1                     16      0.13%    100.00% # Request fanout histogram
system.tol2bus.snoop_fanout::2                      0      0.00%    100.00% # Request fanout histogram
system.tol2bus.snoop_fanout::3                      0      0.00%    100.00% # Request fanout histogram
system.tol2bus.snoop_fanout::4                      0      0.00%    100.00% # Request fanout histogram
system.tol2bus.snoop_fanout::overflows              0      0.00%    100.00% # Request fanout histogram
system.tol2bus.snoop_fanout::min_value              0                       # Request fanout histogram
system.tol2bus.snoop_fanout::max_value              1                       # Request fanout histogram
system.tol2bus.snoop_fanout::total              12556                       # Request fanout histogram
system.tol2bus.power_state.pwrStateResidencyTicks::UNDEFINED    297741500                       # Cumulative time (in ticks) in various power states
system.tol2bus.reqLayer0.occupancy           23891000                       # Layer occupancy (ticks)
system.tol2bus.reqLayer0.utilization              8.0                       # Layer utilization (%)
system.tol2bus.respLayer0.occupancy           3986480                       # Layer occupancy (ticks)
system.tol2bus.respLayer0.utilization             1.3                       # Layer utilization (%)
system.tol2bus.respLayer1.occupancy          14791497                       # Layer occupancy (ticks)
system.tol2bus.respLayer1.utilization             5.0                       # Layer utilization (%)
system.voltage_domain.voltage                       1                       # Voltage in Volts

---------- End Simulation Statistics   ----------
