
---------- Begin Simulation Statistics ----------
final_tick                                 3872946000                       # Number of ticks from beginning of simulation (restored from checkpoints and never reset)
host_mem_usage                               67691052                       # Number of bytes of host memory used
host_seconds                                    41.53                       # Real time elapsed on the host
host_tick_rate                               93259570                       # Simulator tick rate (ticks/s)
sim_freq                                 1000000000000                       # Frequency of simulated ticks
sim_seconds                                  0.003873                       # Number of seconds simulated
sim_ticks                                  3872946000                       # Number of ticks simulated
system.cpu.cc_regfile_reads                   7995970                       # number of cc regfile reads
system.cpu.cc_regfile_writes                  5878898                       # number of cc regfile writes
system.cpu.committedInsts::0                  3810237                       # Number of Instructions Simulated
system.cpu.committedInsts::1                  3810237                       # Number of Instructions Simulated
system.cpu.committedInsts::total              7620474                       # Number of Instructions Simulated
system.cpu.committedOps::0                    6845422                       # Number of Ops (including micro ops) Simulated
system.cpu.committedOps::1                    6845422                       # Number of Ops (including micro ops) Simulated
system.cpu.committedOps::total               13690844                       # Number of Ops (including micro ops) Simulated
system.cpu.cpi::0                            2.032916                       # CPI: Cycles Per Instruction
system.cpu.cpi::1                            2.032916                       # CPI: Cycles Per Instruction
system.cpu.cpi_total                         1.016458                       # CPI: Total CPI of All Threads
system.cpu.fp_regfile_reads                    421727                       # number of floating regfile reads
system.cpu.fp_regfile_writes                   232468                       # number of floating regfile writes
system.cpu.idleCycles                          128735                       # Total number of cycles that the CPU has spent unscheduled due to idling
system.cpu.iew.branchMispredicts                65224                       # Number of branch mispredicts detected at execute
system.cpu.iew.exec_branches::0                716916                       # Number of branches executed
system.cpu.iew.exec_branches::1                723859                       # Number of branches executed
system.cpu.iew.exec_branches::total           1440775                       # Number of branches executed
system.cpu.iew.exec_nop::0                          0                       # number of nop insts executed
system.cpu.iew.exec_nop::1                          0                       # number of nop insts executed
system.cpu.iew.exec_nop::total                      0                       # number of nop insts executed
system.cpu.iew.exec_rate                     1.957208                       # Inst execution rate
system.cpu.iew.exec_refs::0                   1496195                       # number of memory reference insts executed
system.cpu.iew.exec_refs::1                   1497596                       # number of memory reference insts executed
system.cpu.iew.exec_refs::total               2993791                       # number of memory reference insts executed
system.cpu.iew.exec_stores::0                  449791                       # Number of stores executed
system.cpu.iew.exec_stores::1                  450941                       # Number of stores executed
system.cpu.iew.exec_stores::total              900732                       # Number of stores executed
system.cpu.iew.exec_swp::0                          0                       # number of swp insts executed
system.cpu.iew.exec_swp::1                          0                       # number of swp insts executed
system.cpu.iew.exec_swp::total                      0                       # number of swp insts executed
system.cpu.iew.iewBlockCycles                 2041228                       # Number of cycles IEW is blocking
system.cpu.iew.iewDispLoadInsts               2119450                       # Number of dispatched load instructions
system.cpu.iew.iewDispNonSpecInsts               1992                       # Number of dispatched non-speculative instructions
system.cpu.iew.iewDispSquashedInsts                 0                       # Number of squashed instructions skipped by dispatch
system.cpu.iew.iewDispStoreInsts               953327                       # Number of dispatched store instructions
system.cpu.iew.iewDispatchedInsts            16019929                       # Number of instructions dispatched to IQ
system.cpu.iew.iewExecLoadInsts::0            1046404                       # Number of load instructions executed
system.cpu.iew.iewExecLoadInsts::1            1046655                       # Number of load instructions executed
system.cpu.iew.iewExecLoadInsts::total        2093059                       # Number of load instructions executed
system.cpu.iew.iewExecSquashedInsts             99769                       # Number of squashed instructions skipped in execute
system.cpu.iew.iewExecutedInsts              15160327                       # Number of executed instructions
system.cpu.iew.iewIQFullEvents                  10244                       # Number of times the IQ has become full, causing a stall
system.cpu.iew.iewIdleCycles                        0                       # Number of cycles IEW is idle
system.cpu.iew.iewLSQFullEvents                  2706                       # Number of times the LSQ has become full, causing a stall
system.cpu.iew.iewSquashCycles                  59169                       # Number of cycles IEW is squashing
system.cpu.iew.iewUnblockCycles                 21997                       # Number of cycles IEW is unblocking
system.cpu.iew.memOrderViolationEvents            354                       # Number of memory order violations
system.cpu.iew.predictedNotTakenIncorrect        45135                       # Number of branches that were predicted not taken incorrectly
system.cpu.iew.predictedTakenIncorrect          20089                       # Number of branches that were predicted taken incorrectly
system.cpu.iew.wb_consumers::0                9579618                       # num instructions consuming a value
system.cpu.iew.wb_consumers::1                9652005                       # num instructions consuming a value
system.cpu.iew.wb_consumers::total           19231623                       # num instructions consuming a value
system.cpu.iew.wb_count::0                    7494601                       # cumulative count of insts written-back
system.cpu.iew.wb_count::1                    7538221                       # cumulative count of insts written-back
system.cpu.iew.wb_count::total               15032822                       # cumulative count of insts written-back
system.cpu.iew.wb_fanout::0                  0.584669                       # average fanout of values written-back
system.cpu.iew.wb_fanout::1                  0.583461                       # average fanout of values written-back
system.cpu.iew.wb_fanout::total              0.584063                       # average fanout of values written-back
system.cpu.iew.wb_producers::0                5600910                       # num instructions producing a value
system.cpu.iew.wb_producers::1                5631573                       # num instructions producing a value
system.cpu.iew.wb_producers::total           11232483                       # num instructions producing a value
system.cpu.iew.wb_rate::0                    0.967558                       # insts written-back per cycle
system.cpu.iew.wb_rate::1                    0.973189                       # insts written-back per cycle
system.cpu.iew.wb_rate::total                1.940747                       # insts written-back per cycle
system.cpu.iew.wb_sent::0                     7497079                       # cumulative count of insts sent to commit
system.cpu.iew.wb_sent::1                     7543920                       # cumulative count of insts sent to commit
system.cpu.iew.wb_sent::total                15040999                       # cumulative count of insts sent to commit
system.cpu.int_regfile_reads                 23609585                       # number of integer regfile reads
system.cpu.int_regfile_writes                12489459                       # number of integer regfile writes
system.cpu.ipc::0                            0.491904                       # IPC: Instructions Per Cycle
system.cpu.ipc::1                            0.491904                       # IPC: Instructions Per Cycle
system.cpu.ipc_total                         0.983808                       # IPC: Total IPC of All Threads
system.cpu.iq.FU_type_0::No_OpClass             90735      1.18%      1.18% # Type of FU issued
system.cpu.iq.FU_type_0::IntAlu               5860774     76.27%     77.45% # Type of FU issued
system.cpu.iq.FU_type_0::IntMult                  527      0.01%     77.46% # Type of FU issued
system.cpu.iq.FU_type_0::IntDiv                 46335      0.60%     78.06% # Type of FU issued
system.cpu.iq.FU_type_0::FloatAdd               11440      0.15%     78.21% # Type of FU issued
system.cpu.iq.FU_type_0::FloatCmp                   0      0.00%     78.21% # Type of FU issued
system.cpu.iq.FU_type_0::FloatCvt                1502      0.02%     78.23% # Type of FU issued
system.cpu.iq.FU_type_0::FloatMult                  0      0.00%     78.23% # Type of FU issued
system.cpu.iq.FU_type_0::FloatMultAcc               0      0.00%     78.23% # Type of FU issued
system.cpu.iq.FU_type_0::FloatDiv                   0      0.00%     78.23% # Type of FU issued
system.cpu.iq.FU_type_0::FloatMisc                  0      0.00%     78.23% # Type of FU issued
system.cpu.iq.FU_type_0::FloatSqrt                  0      0.00%     78.23% # Type of FU issued
system.cpu.iq.FU_type_0::SimdAdd                 8615      0.11%     78.34% # Type of FU issued
system.cpu.iq.FU_type_0::SimdAddAcc                 0      0.00%     78.34% # Type of FU issued
system.cpu.iq.FU_type_0::SimdAlu                25626      0.33%     78.67% # Type of FU issued
system.cpu.iq.FU_type_0::SimdCmp                  182      0.00%     78.67% # Type of FU issued
system.cpu.iq.FU_type_0::SimdCvt                21823      0.28%     78.96% # Type of FU issued
system.cpu.iq.FU_type_0::SimdMisc               21920      0.29%     79.24% # Type of FU issued
system.cpu.iq.FU_type_0::SimdMult                   0      0.00%     79.24% # Type of FU issued
system.cpu.iq.FU_type_0::SimdMultAcc                0      0.00%     79.24% # Type of FU issued
system.cpu.iq.FU_type_0::SimdShift               1478      0.02%     79.26% # Type of FU issued
system.cpu.iq.FU_type_0::SimdShiftAcc               0      0.00%     79.26% # Type of FU issued
system.cpu.iq.FU_type_0::SimdDiv                    0      0.00%     79.26% # Type of FU issued
system.cpu.iq.FU_type_0::SimdSqrt                   0      0.00%     79.26% # Type of FU issued
system.cpu.iq.FU_type_0::SimdFloatAdd               5      0.00%     79.26% # Type of FU issued
system.cpu.iq.FU_type_0::SimdFloatAlu               0      0.00%     79.26% # Type of FU issued
system.cpu.iq.FU_type_0::SimdFloatCmp               0      0.00%     79.26% # Type of FU issued
system.cpu.iq.FU_type_0::SimdFloatCvt             191      0.00%     79.27% # Type of FU issued
system.cpu.iq.FU_type_0::SimdFloatDiv               1      0.00%     79.27% # Type of FU issued
system.cpu.iq.FU_type_0::SimdFloatMisc              0      0.00%     79.27% # Type of FU issued
system.cpu.iq.FU_type_0::SimdFloatMult             64      0.00%     79.27% # Type of FU issued
system.cpu.iq.FU_type_0::SimdFloatMultAcc            0      0.00%     79.27% # Type of FU issued
system.cpu.iq.FU_type_0::SimdFloatSqrt              1      0.00%     79.27% # Type of FU issued
system.cpu.iq.FU_type_0::SimdReduceAdd              0      0.00%     79.27% # Type of FU issued
system.cpu.iq.FU_type_0::SimdReduceAlu              0      0.00%     79.27% # Type of FU issued
system.cpu.iq.FU_type_0::SimdReduceCmp              0      0.00%     79.27% # Type of FU issued
system.cpu.iq.FU_type_0::SimdFloatReduceAdd            0      0.00%     79.27% # Type of FU issued
system.cpu.iq.FU_type_0::SimdFloatReduceCmp            0      0.00%     79.27% # Type of FU issued
system.cpu.iq.FU_type_0::SimdAes                    0      0.00%     79.27% # Type of FU issued
system.cpu.iq.FU_type_0::SimdAesMix                 0      0.00%     79.27% # Type of FU issued
system.cpu.iq.FU_type_0::SimdSha1Hash               0      0.00%     79.27% # Type of FU issued
system.cpu.iq.FU_type_0::SimdSha1Hash2              0      0.00%     79.27% # Type of FU issued
system.cpu.iq.FU_type_0::SimdSha256Hash             0      0.00%     79.27% # Type of FU issued
system.cpu.iq.FU_type_0::SimdSha256Hash2            0      0.00%     79.27% # Type of FU issued
system.cpu.iq.FU_type_0::SimdShaSigma2              0      0.00%     79.27% # Type of FU issued
system.cpu.iq.FU_type_0::SimdShaSigma3              0      0.00%     79.27% # Type of FU issued
system.cpu.iq.FU_type_0::SimdPredAlu                0      0.00%     79.27% # Type of FU issued
system.cpu.iq.FU_type_0::MemRead              1088405     14.16%     93.43% # Type of FU issued
system.cpu.iq.FU_type_0::MemWrite              429266      5.59%     99.02% # Type of FU issued
system.cpu.iq.FU_type_0::FloatMemRead           47282      0.62%     99.63% # Type of FU issued
system.cpu.iq.FU_type_0::FloatMemWrite          28303      0.37%    100.00% # Type of FU issued
system.cpu.iq.FU_type_0::IprAccess                  0      0.00%    100.00% # Type of FU issued
system.cpu.iq.FU_type_0::InstPrefetch               0      0.00%    100.00% # Type of FU issued
system.cpu.iq.FU_type_0::total                7684475                       # Type of FU issued
system.cpu.iq.FU_type_1::No_OpClass             96716      1.25%      1.25% # Type of FU issued
system.cpu.iq.FU_type_1::IntAlu               5900568     76.05%     77.30% # Type of FU issued
system.cpu.iq.FU_type_1::IntMult                  549      0.01%     77.31% # Type of FU issued
system.cpu.iq.FU_type_1::IntDiv                 47468      0.61%     77.92% # Type of FU issued
system.cpu.iq.FU_type_1::FloatAdd               12034      0.16%     78.07% # Type of FU issued
system.cpu.iq.FU_type_1::FloatCmp                   0      0.00%     78.07% # Type of FU issued
system.cpu.iq.FU_type_1::FloatCvt                1482      0.02%     78.09% # Type of FU issued
system.cpu.iq.FU_type_1::FloatMult                  0      0.00%     78.09% # Type of FU issued
system.cpu.iq.FU_type_1::FloatMultAcc               0      0.00%     78.09% # Type of FU issued
system.cpu.iq.FU_type_1::FloatDiv                   0      0.00%     78.09% # Type of FU issued
system.cpu.iq.FU_type_1::FloatMisc                  0      0.00%     78.09% # Type of FU issued
system.cpu.iq.FU_type_1::FloatSqrt                  0      0.00%     78.09% # Type of FU issued
system.cpu.iq.FU_type_1::SimdAdd                 8851      0.11%     78.21% # Type of FU issued
system.cpu.iq.FU_type_1::SimdAddAcc                 0      0.00%     78.21% # Type of FU issued
system.cpu.iq.FU_type_1::SimdAlu                25522      0.33%     78.54% # Type of FU issued
system.cpu.iq.FU_type_1::SimdCmp                  174      0.00%     78.54% # Type of FU issued
system.cpu.iq.FU_type_1::SimdCvt                21897      0.28%     78.82% # Type of FU issued
system.cpu.iq.FU_type_1::SimdMisc               22203      0.29%     79.11% # Type of FU issued
system.cpu.iq.FU_type_1::SimdMult                   0      0.00%     79.11% # Type of FU issued
system.cpu.iq.FU_type_1::SimdMultAcc                0      0.00%     79.11% # Type of FU issued
system.cpu.iq.FU_type_1::SimdShift               1665      0.02%     79.13% # Type of FU issued
system.cpu.iq.FU_type_1::SimdShiftAcc               0      0.00%     79.13% # Type of FU issued
system.cpu.iq.FU_type_1::SimdDiv                    0      0.00%     79.13% # Type of FU issued
system.cpu.iq.FU_type_1::SimdSqrt                   0      0.00%     79.13% # Type of FU issued
system.cpu.iq.FU_type_1::SimdFloatAdd               5      0.00%     79.13% # Type of FU issued
system.cpu.iq.FU_type_1::SimdFloatAlu               0      0.00%     79.13% # Type of FU issued
system.cpu.iq.FU_type_1::SimdFloatCmp               0      0.00%     79.13% # Type of FU issued
system.cpu.iq.FU_type_1::SimdFloatCvt             167      0.00%     79.13% # Type of FU issued
system.cpu.iq.FU_type_1::SimdFloatDiv               1      0.00%     79.13% # Type of FU issued
system.cpu.iq.FU_type_1::SimdFloatMisc              0      0.00%     79.13% # Type of FU issued
system.cpu.iq.FU_type_1::SimdFloatMult             56      0.00%     79.13% # Type of FU issued
system.cpu.iq.FU_type_1::SimdFloatMultAcc            0      0.00%     79.13% # Type of FU issued
system.cpu.iq.FU_type_1::SimdFloatSqrt              1      0.00%     79.13% # Type of FU issued
system.cpu.iq.FU_type_1::SimdReduceAdd              0      0.00%     79.13% # Type of FU issued
system.cpu.iq.FU_type_1::SimdReduceAlu              0      0.00%     79.13% # Type of FU issued
system.cpu.iq.FU_type_1::SimdReduceCmp              0      0.00%     79.13% # Type of FU issued
system.cpu.iq.FU_type_1::SimdFloatReduceAdd            0      0.00%     79.13% # Type of FU issued
system.cpu.iq.FU_type_1::SimdFloatReduceCmp            0      0.00%     79.13% # Type of FU issued
system.cpu.iq.FU_type_1::SimdAes                    0      0.00%     79.13% # Type of FU issued
system.cpu.iq.FU_type_1::SimdAesMix                 0      0.00%     79.13% # Type of FU issued
system.cpu.iq.FU_type_1::SimdSha1Hash               0      0.00%     79.13% # Type of FU issued
system.cpu.iq.FU_type_1::SimdSha1Hash2              0      0.00%     79.13% # Type of FU issued
system.cpu.iq.FU_type_1::SimdSha256Hash             0      0.00%     79.13% # Type of FU issued
system.cpu.iq.FU_type_1::SimdSha256Hash2            0      0.00%     79.13% # Type of FU issued
system.cpu.iq.FU_type_1::SimdShaSigma2              0      0.00%     79.13% # Type of FU issued
system.cpu.iq.FU_type_1::SimdShaSigma3              0      0.00%     79.13% # Type of FU issued
system.cpu.iq.FU_type_1::SimdPredAlu                0      0.00%     79.13% # Type of FU issued
system.cpu.iq.FU_type_1::MemRead              1106813     14.27%     93.40% # Type of FU issued
system.cpu.iq.FU_type_1::MemWrite              433084      5.58%     98.98% # Type of FU issued
system.cpu.iq.FU_type_1::FloatMemRead           50445      0.65%     99.63% # Type of FU issued
system.cpu.iq.FU_type_1::FloatMemWrite          28723      0.37%    100.00% # Type of FU issued
system.cpu.iq.FU_type_1::IprAccess                  0      0.00%    100.00% # Type of FU issued
system.cpu.iq.FU_type_1::InstPrefetch               0      0.00%    100.00% # Type of FU issued
system.cpu.iq.FU_type_1::total                7758424                       # Type of FU issued
system.cpu.iq.FU_type::total                 15442899      0.00%      0.00% # Type of FU issued
system.cpu.iq.fp_alu_accesses                  563126                       # Number of floating point alu accesses
system.cpu.iq.fp_inst_queue_reads              922085                       # Number of floating instruction queue reads
system.cpu.iq.fp_inst_queue_wakeup_accesses       313704                       # Number of floating instruction queue wakeup accesses
system.cpu.iq.fp_inst_queue_writes             478452                       # Number of floating instruction queue writes
system.cpu.iq.fu_busy_cnt::0                  4397762                       # FU busy when requested
system.cpu.iq.fu_busy_cnt::1                  2883865                       # FU busy when requested
system.cpu.iq.fu_busy_cnt::total              7281627                       # FU busy when requested
system.cpu.iq.fu_busy_rate::0                0.284776                       # FU busy rate (busy events/executed inst)
system.cpu.iq.fu_busy_rate::1                0.186744                       # FU busy rate (busy events/executed inst)
system.cpu.iq.fu_busy_rate::total            0.471519                       # FU busy rate (busy events/executed inst)
system.cpu.iq.fu_full::No_OpClass                   0      0.00%      0.00% # attempts to use FU when none available
system.cpu.iq.fu_full::IntAlu                 3999601     54.93%     54.93% # attempts to use FU when none available
system.cpu.iq.fu_full::IntMult                    380      0.01%     54.93% # attempts to use FU when none available
system.cpu.iq.fu_full::IntDiv                  253818      3.49%     58.42% # attempts to use FU when none available
system.cpu.iq.fu_full::FloatAdd                 18015      0.25%     58.67% # attempts to use FU when none available
system.cpu.iq.fu_full::FloatCmp                     0      0.00%     58.67% # attempts to use FU when none available
system.cpu.iq.fu_full::FloatCvt                  1583      0.02%     58.69% # attempts to use FU when none available
system.cpu.iq.fu_full::FloatMult                    0      0.00%     58.69% # attempts to use FU when none available
system.cpu.iq.fu_full::FloatMultAcc                 0      0.00%     58.69% # attempts to use FU when none available
system.cpu.iq.fu_full::FloatDiv                     0      0.00%     58.69% # attempts to use FU when none available
system.cpu.iq.fu_full::FloatMisc                    0      0.00%     58.69% # attempts to use FU when none available
system.cpu.iq.fu_full::FloatSqrt                    0      0.00%     58.69% # attempts to use FU when none available
system.cpu.iq.fu_full::SimdAdd                  13632      0.19%     58.87% # attempts to use FU when none available
system.cpu.iq.fu_full::SimdAddAcc                   0      0.00%     58.87% # attempts to use FU when none available
system.cpu.iq.fu_full::SimdAlu                  28211      0.39%     59.26% # attempts to use FU when none available
system.cpu.iq.fu_full::SimdCmp                    265      0.00%     59.27% # attempts to use FU when none available
system.cpu.iq.fu_full::SimdCvt                  26472      0.36%     59.63% # attempts to use FU when none available
system.cpu.iq.fu_full::SimdMisc                 29519      0.41%     60.03% # attempts to use FU when none available
system.cpu.iq.fu_full::SimdMult                     0      0.00%     60.03% # attempts to use FU when none available
system.cpu.iq.fu_full::SimdMultAcc                  0      0.00%     60.03% # attempts to use FU when none available
system.cpu.iq.fu_full::SimdShift                 2441      0.03%     60.07% # attempts to use FU when none available
system.cpu.iq.fu_full::SimdShiftAcc                 0      0.00%     60.07% # attempts to use FU when none available
system.cpu.iq.fu_full::SimdDiv                      0      0.00%     60.07% # attempts to use FU when none available
system.cpu.iq.fu_full::SimdSqrt                     0      0.00%     60.07% # attempts to use FU when none available
system.cpu.iq.fu_full::SimdFloatAdd                 7      0.00%     60.07% # attempts to use FU when none available
system.cpu.iq.fu_full::SimdFloatAlu                 0      0.00%     60.07% # attempts to use FU when none available
system.cpu.iq.fu_full::SimdFloatCmp                 0      0.00%     60.07% # attempts to use FU when none available
system.cpu.iq.fu_full::SimdFloatCvt               154      0.00%     60.07% # attempts to use FU when none available
system.cpu.iq.fu_full::SimdFloatDiv                 1      0.00%     60.07% # attempts to use FU when none available
system.cpu.iq.fu_full::SimdFloatMisc                0      0.00%     60.07% # attempts to use FU when none available
system.cpu.iq.fu_full::SimdFloatMult               84      0.00%     60.07% # attempts to use FU when none available
system.cpu.iq.fu_full::SimdFloatMultAcc             0      0.00%     60.07% # attempts to use FU when none available
system.cpu.iq.fu_full::SimdFloatSqrt                0      0.00%     60.07% # attempts to use FU when none available
system.cpu.iq.fu_full::SimdReduceAdd                0      0.00%     60.07% # attempts to use FU when none available
system.cpu.iq.fu_full::SimdReduceAlu                0      0.00%     60.07% # attempts to use FU when none available
system.cpu.iq.fu_full::SimdReduceCmp                0      0.00%     60.07% # attempts to use FU when none available
system.cpu.iq.fu_full::SimdFloatReduceAdd            0      0.00%     60.07% # attempts to use FU when none available
system.cpu.iq.fu_full::SimdFloatReduceCmp            0      0.00%     60.07% # attempts to use FU when none available
system.cpu.iq.fu_full::SimdAes                      0      0.00%     60.07% # attempts to use FU when none available
system.cpu.iq.fu_full::SimdAesMix                   0      0.00%     60.07% # attempts to use FU when none available
system.cpu.iq.fu_full::SimdSha1Hash                 0      0.00%     60.07% # attempts to use FU when none available
system.cpu.iq.fu_full::SimdSha1Hash2                0      0.00%     60.07% # attempts to use FU when none available
system.cpu.iq.fu_full::SimdSha256Hash               0      0.00%     60.07% # attempts to use FU when none available
system.cpu.iq.fu_full::SimdSha256Hash2              0      0.00%     60.07% # attempts to use FU when none available
system.cpu.iq.fu_full::SimdShaSigma2                0      0.00%     60.07% # attempts to use FU when none available
system.cpu.iq.fu_full::SimdShaSigma3                0      0.00%     60.07% # attempts to use FU when none available
system.cpu.iq.fu_full::SimdPredAlu                  0      0.00%     60.07% # attempts to use FU when none available
system.cpu.iq.fu_full::MemRead                2084032     28.62%     88.69% # attempts to use FU when none available
system.cpu.iq.fu_full::MemWrite                823412     11.31%    100.00% # attempts to use FU when none available
system.cpu.iq.fu_full::FloatMemRead                 0      0.00%    100.00% # attempts to use FU when none available
system.cpu.iq.fu_full::FloatMemWrite                0      0.00%    100.00% # attempts to use FU when none available
system.cpu.iq.fu_full::IprAccess                    0      0.00%    100.00% # attempts to use FU when none available
system.cpu.iq.fu_full::InstPrefetch                 0      0.00%    100.00% # attempts to use FU when none available
system.cpu.iq.int_alu_accesses               28052478                       # Number of integer alu accesses
system.cpu.iq.int_inst_queue_reads           51014922                       # Number of integer instruction queue reads
system.cpu.iq.int_inst_queue_wakeup_accesses     14719118                       # Number of integer instruction queue wakeup accesses
system.cpu.iq.int_inst_queue_writes          17870904                       # Number of integer instruction queue writes
system.cpu.iq.iqInstsAdded                   16017140                       # Number of instructions added to the IQ (excludes non-spec)
system.cpu.iq.iqInstsIssued                  15442899                       # Number of instructions issued
system.cpu.iq.iqNonSpecInstsAdded                2789                       # Number of non-speculative instructions added to the IQ
system.cpu.iq.iqSquashedInstsExamined         2329074                       # Number of squashed instructions iterated over during squash; mainly for profiling
system.cpu.iq.iqSquashedInstsIssued             73899                       # Number of squashed instructions issued
system.cpu.iq.iqSquashedNonSpecRemoved            143                       # Number of squashed non-spec instructions that were removed
system.cpu.iq.iqSquashedOperandsExamined      3225795                       # Number of squashed operands that are examined and possibly removed from graph
system.cpu.iq.issued_per_cycle::samples       7617158                       # Number of insts issued each cycle
system.cpu.iq.issued_per_cycle::mean         2.027383                       # Number of insts issued each cycle
system.cpu.iq.issued_per_cycle::stdev        1.944897                       # Number of insts issued each cycle
system.cpu.iq.issued_per_cycle::underflows            0      0.00%      0.00% # Number of insts issued each cycle
system.cpu.iq.issued_per_cycle::0             2668739     35.04%     35.04% # Number of insts issued each cycle
system.cpu.iq.issued_per_cycle::1             1149500     15.09%     50.13% # Number of insts issued each cycle
system.cpu.iq.issued_per_cycle::2              713536      9.37%     59.49% # Number of insts issued each cycle
system.cpu.iq.issued_per_cycle::3              753947      9.90%     69.39% # Number of insts issued each cycle
system.cpu.iq.issued_per_cycle::4             1280807     16.81%     86.21% # Number of insts issued each cycle
system.cpu.iq.issued_per_cycle::5              850217     11.16%     97.37% # Number of insts issued each cycle
system.cpu.iq.issued_per_cycle::6              177251      2.33%     99.70% # Number of insts issued each cycle
system.cpu.iq.issued_per_cycle::7               18621      0.24%     99.94% # Number of insts issued each cycle
system.cpu.iq.issued_per_cycle::8                4540      0.06%    100.00% # Number of insts issued each cycle
system.cpu.iq.issued_per_cycle::overflows            0      0.00%    100.00% # Number of insts issued each cycle
system.cpu.iq.issued_per_cycle::min_value            0                       # Number of insts issued each cycle
system.cpu.iq.issued_per_cycle::max_value            8                       # Number of insts issued each cycle
system.cpu.iq.issued_per_cycle::total         7617158                       # Number of insts issued each cycle
system.cpu.iq.rate                           1.993689                       # Inst issue rate
system.cpu.iq.vec_alu_accesses                      0                       # Number of vector alu accesses
system.cpu.iq.vec_inst_queue_reads                  0                       # Number of vector instruction queue reads
system.cpu.iq.vec_inst_queue_wakeup_accesses            0                       # Number of vector instruction queue wakeup accesses
system.cpu.iq.vec_inst_queue_writes                 0                       # Number of vector instruction queue writes
system.cpu.memDep0.conflictingLoads             22762                       # Number of conflicting loads.
system.cpu.memDep0.conflictingStores            13513                       # Number of conflicting stores.
system.cpu.memDep0.insertedLoads              1057079                       # Number of loads inserted to the mem dependence unit.
system.cpu.memDep0.insertedStores              477000                       # Number of stores inserted to the mem dependence unit.
system.cpu.memDep1.conflictingLoads             21344                       # Number of conflicting loads.
system.cpu.memDep1.conflictingStores            16049                       # Number of conflicting stores.
system.cpu.memDep1.insertedLoads              1062371                       # Number of loads inserted to the mem dependence unit.
system.cpu.memDep1.insertedStores              476327                       # Number of stores inserted to the mem dependence unit.
system.cpu.misc_regfile_reads                 6158890                       # number of misc regfile reads
system.cpu.misc_regfile_writes                   1584                       # number of misc regfile writes
system.cpu.numCycles                          7745893                       # number of cpu cycles simulated
system.cpu.numWorkItemsCompleted                    0                       # number of work items this cpu completed
system.cpu.numWorkItemsStarted                      0                       # number of work items this cpu started
system.cpu.timesIdled                            4391                       # Number of times that the entire CPU went into an idle state and unscheduled itself
system.cpu.workload0.numSyscalls                  117                       # Number of system calls
system.cpu.workload1.numSyscalls                  117                       # Number of system calls
system.membus.snoop_filter.hit_multi_requests            0                       # Number of requests hitting in the snoop filter with multiple (>1) holders of the requested data.
system.membus.snoop_filter.hit_multi_snoops            0                       # Number of snoops hitting in the snoop filter with multiple (>1) holders of the requested data.
system.membus.snoop_filter.hit_single_requests         1309                       # Number of requests hitting in the snoop filter with a single holder of the requested data.
system.membus.snoop_filter.hit_single_snoops            0                       # Number of snoops hitting in the snoop filter with a single holder of the requested data.
system.membus.snoop_filter.tot_requests         50797                       # Total number of requests made to the snoop filter.
system.membus.snoop_filter.tot_snoops               0                       # Total number of snoops made to the snoop filter.
system.tol2bus.snoop_filter.hit_multi_requests          128                       # Number of requests hitting in the snoop filter with multiple (>1) holders of the requested data.
system.tol2bus.snoop_filter.hit_multi_snoops            0                       # Number of snoops hitting in the snoop filter with multiple (>1) holders of the requested data.
system.tol2bus.snoop_filter.hit_single_requests       119395                       # Number of requests hitting in the snoop filter with a single holder of the requested data.
system.tol2bus.snoop_filter.hit_single_snoops           33                       # Number of snoops hitting in the snoop filter with a single holder of the requested data.
system.tol2bus.snoop_filter.tot_requests       239429                       # Total number of requests made to the snoop filter.
system.tol2bus.snoop_filter.tot_snoops             33                       # Total number of snoops made to the snoop filter.
sim_insts                                     7620474                       # Number of instructions simulated
sim_ops                                      13690844                       # Number of ops (including micro ops) simulated
host_inst_rate                                 183492                       # Simulator instruction rate (inst/s)
host_op_rate                                   329659                       # Simulator op (including micro ops) rate (op/s)
system.clk_domain.clock                          1000                       # Clock period in ticks
system.cpu.branchPred.lookups                 1787904                       # Number of BP lookups
system.cpu.branchPred.condPredicted           1434811                       # Number of conditional branches predicted
system.cpu.branchPred.condIncorrect             73532                       # Number of conditional branches incorrect
system.cpu.branchPred.BTBLookups               826685                       # Number of BTB lookups
system.cpu.branchPred.BTBHits                  785045                       # Number of BTB hits
system.cpu.branchPred.BTBHitPct             94.963015                       # BTB Hit Percentage
system.cpu.branchPred.RASUsed                   80278                       # Number of times the RAS was used to get a target.
system.cpu.branchPred.RASIncorrect                124                       # Number of incorrect RAS predictions.
system.cpu.branchPred.indirectLookups           81257                       # Number of indirect predictor lookups.
system.cpu.branchPred.indirectHits              43646                       # Number of indirect target hits.
system.cpu.branchPred.indirectMisses            37611                       # Number of indirect misses.
system.cpu.branchPred.indirectMispredicted         6466                       # Number of mispredicted indirect branches.
system.cpu.branchPred.power_state.pwrStateResidencyTicks::UNDEFINED   3872946000                       # Cumulative time (in ticks) in various power states
system.cpu.commit.commitSquashedInsts         2208917                       # The number of squashed insts skipped by commit
system.cpu.commit.commitNonSpecStalls            2646                       # The number of times commit has been forced to stall to communicate backwards
system.cpu.commit.branchMispredicts             57788                       # The number of times a branch was mispredicted
system.cpu.commit.numCommittedDist::samples      7613993                       # Number of insts commited each cycle
system.cpu.commit.numCommittedDist::mean     1.798116                       # Number of insts commited each cycle
system.cpu.commit.numCommittedDist::stdev     2.846095                       # Number of insts commited each cycle
system.cpu.commit.numCommittedDist::underflows            0      0.00%      0.00% # Number of insts commited each cycle
system.cpu.commit.numCommittedDist::0         4625522     60.75%     60.75% # Number of insts commited each cycle
system.cpu.commit.numCommittedDist::1          609672      8.01%     68.76% # Number of insts commited each cycle
system.cpu.commit.numCommittedDist::2          309405      4.06%     72.82% # Number of insts commited each cycle
system.cpu.commit.numCommittedDist::3          508904      6.68%     79.50% # Number of insts commited each cycle
system.cpu.commit.numCommittedDist::4          184228      2.42%     81.92% # Number of insts commited each cycle
system.cpu.commit.numCommittedDist::5          117610      1.54%     83.47% # Number of insts commited each cycle
system.cpu.commit.numCommittedDist::6          150950      1.98%     85.45% # Number of insts commited each cycle
system.cpu.commit.numCommittedDist::7          156628      2.06%     87.51% # Number of insts commited each cycle
system.cpu.commit.numCommittedDist::8          951074     12.49%    100.00% # Number of insts commited each cycle
system.cpu.commit.numCommittedDist::overflows            0      0.00%    100.00% # Number of insts commited each cycle
system.cpu.commit.numCommittedDist::min_value            0                       # Number of insts commited each cycle
system.cpu.commit.numCommittedDist::max_value            8                       # Number of insts commited each cycle
system.cpu.commit.numCommittedDist::total      7613993                       # Number of insts commited each cycle
system.cpu.commit.instsCommitted::0           3810237                       # Number of instructions committed
system.cpu.commit.instsCommitted::1           3810237                       # Number of instructions committed
system.cpu.commit.instsCommitted::total       7620474                       # Number of instructions committed
system.cpu.commit.opsCommitted::0             6845422                       # Number of ops (including micro ops) committed
system.cpu.commit.opsCommitted::1             6845422                       # Number of ops (including micro ops) committed
system.cpu.commit.opsCommitted::total        13690844                       # Number of ops (including micro ops) committed
system.cpu.commit.memRefs::0                  1310433                       # Number of memory references committed
system.cpu.commit.memRefs::1                  1310433                       # Number of memory references committed
system.cpu.commit.memRefs::total              2620866                       # Number of memory references committed
system.cpu.commit.loads::0                     905312                       # Number of loads committed
system.cpu.commit.loads::1                     905312                       # Number of loads committed
system.cpu.commit.loads::total                1810624                       # Number of loads committed
system.cpu.commit.amos::0                           0                       # Number of atomic instructions committed
system.cpu.commit.amos::1                           0                       # Number of atomic instructions committed
system.cpu.commit.amos::total                       0                       # Number of atomic instructions committed
system.cpu.commit.membars::0                      354                       # Number of memory barriers committed
system.cpu.commit.membars::1                      354                       # Number of memory barriers committed
system.cpu.commit.membars::total                  708                       # Number of memory barriers committed
system.cpu.commit.branches::0                  679817                       # Number of branches committed
system.cpu.commit.branches::1                  679817                       # Number of branches committed
system.cpu.commit.branches::total             1359634                       # Number of branches committed
system.cpu.commit.vector::0                         0                       # Number of committed Vector instructions.
system.cpu.commit.vector::1                         0                       # Number of committed Vector instructions.
system.cpu.commit.vector::total                     0                       # Number of committed Vector instructions.
system.cpu.commit.floating::0                  132636                       # Number of committed floating point instructions.
system.cpu.commit.floating::1                  132636                       # Number of committed floating point instructions.
system.cpu.commit.floating::total              265272                       # Number of committed floating point instructions.
system.cpu.commit.integer::0                  6711682                       # Number of committed integer instructions.
system.cpu.commit.integer::1                  6711682                       # Number of committed integer instructions.
system.cpu.commit.integer::total             13423364                       # Number of committed integer instructions.
system.cpu.commit.functionCalls::0              32403                       # Number of function calls committed.
system.cpu.commit.functionCalls::1              32403                       # Number of function calls committed.
system.cpu.commit.functionCalls::total          64806                       # Number of function calls committed.
system.cpu.commit.committedInstType_0::No_OpClass        65412      0.96%      0.96% # Class of committed instruction
system.cpu.commit.committedInstType_0::IntAlu      5345366     78.09%     79.04% # Class of committed instruction
system.cpu.commit.committedInstType_0::IntMult          484      0.01%     79.05% # Class of committed instruction
system.cpu.commit.committedInstType_0::IntDiv        46057      0.67%     79.72% # Class of committed instruction
system.cpu.commit.committedInstType_0::FloatAdd         7566      0.11%     79.83% # Class of committed instruction
system.cpu.commit.committedInstType_0::FloatCmp            0      0.00%     79.83% # Class of committed instruction
system.cpu.commit.committedInstType_0::FloatCvt         1408      0.02%     79.85% # Class of committed instruction
system.cpu.commit.committedInstType_0::FloatMult            0      0.00%     79.85% # Class of committed instruction
system.cpu.commit.committedInstType_0::FloatMultAcc            0      0.00%     79.85% # Class of committed instruction
system.cpu.commit.committedInstType_0::FloatDiv            0      0.00%     79.85% # Class of committed instruction
system.cpu.commit.committedInstType_0::FloatMisc            0      0.00%     79.85% # Class of committed instruction
system.cpu.commit.committedInstType_0::FloatSqrt            0      0.00%     79.85% # Class of committed instruction
system.cpu.commit.committedInstType_0::SimdAdd         7892      0.12%     79.97% # Class of committed instruction
system.cpu.commit.committedInstType_0::SimdAddAcc            0      0.00%     79.97% # Class of committed instruction
system.cpu.commit.committedInstType_0::SimdAlu        20535      0.30%     80.27% # Class of committed instruction
system.cpu.commit.committedInstType_0::SimdCmp          174      0.00%     80.27% # Class of committed instruction
system.cpu.commit.committedInstType_0::SimdCvt        18930      0.28%     80.55% # Class of committed instruction
system.cpu.commit.committedInstType_0::SimdMisc        19572      0.29%     80.83% # Class of committed instruction
system.cpu.commit.committedInstType_0::SimdMult            0      0.00%     80.83% # Class of committed instruction
system.cpu.commit.committedInstType_0::SimdMultAcc            0      0.00%     80.83% # Class of committed instruction
system.cpu.commit.committedInstType_0::SimdShift         1377      0.02%     80.85% # Class of committed instruction
system.cpu.commit.committedInstType_0::SimdShiftAcc            0      0.00%     80.85% # Class of committed instruction
system.cpu.commit.committedInstType_0::SimdDiv            0      0.00%     80.85% # Class of committed instruction
system.cpu.commit.committedInstType_0::SimdSqrt            0      0.00%     80.85% # Class of committed instruction
system.cpu.commit.committedInstType_0::SimdFloatAdd            5      0.00%     80.85% # Class of committed instruction
system.cpu.commit.committedInstType_0::SimdFloatAlu            0      0.00%     80.85% # Class of committed instruction
system.cpu.commit.committedInstType_0::SimdFloatCmp            0      0.00%     80.85% # Class of committed instruction
system.cpu.commit.committedInstType_0::SimdFloatCvt          157      0.00%     80.86% # Class of committed instruction
system.cpu.commit.committedInstType_0::SimdFloatDiv            1      0.00%     80.86% # Class of committed instruction
system.cpu.commit.committedInstType_0::SimdFloatMisc            0      0.00%     80.86% # Class of committed instruction
system.cpu.commit.committedInstType_0::SimdFloatMult           52      0.00%     80.86% # Class of committed instruction
system.cpu.commit.committedInstType_0::SimdFloatMultAcc            0      0.00%     80.86% # Class of committed instruction
system.cpu.commit.committedInstType_0::SimdFloatSqrt            1      0.00%     80.86% # Class of committed instruction
system.cpu.commit.committedInstType_0::SimdReduceAdd            0      0.00%     80.86% # Class of committed instruction
system.cpu.commit.committedInstType_0::SimdReduceAlu            0      0.00%     80.86% # Class of committed instruction
system.cpu.commit.committedInstType_0::SimdReduceCmp            0      0.00%     80.86% # Class of committed instruction
system.cpu.commit.committedInstType_0::SimdFloatReduceAdd            0      0.00%     80.86% # Class of committed instruction
system.cpu.commit.committedInstType_0::SimdFloatReduceCmp            0      0.00%     80.86% # Class of committed instruction
system.cpu.commit.committedInstType_0::SimdAes            0      0.00%     80.86% # Class of committed instruction
system.cpu.commit.committedInstType_0::SimdAesMix            0      0.00%     80.86% # Class of committed instruction
system.cpu.commit.committedInstType_0::SimdSha1Hash            0      0.00%     80.86% # Class of committed instruction
system.cpu.commit.committedInstType_0::SimdSha1Hash2            0      0.00%     80.86% # Class of committed instruction
system.cpu.commit.committedInstType_0::SimdSha256Hash            0      0.00%     80.86% # Class of committed instruction
system.cpu.commit.committedInstType_0::SimdSha256Hash2            0      0.00%     80.86% # Class of committed instruction
system.cpu.commit.committedInstType_0::SimdShaSigma2            0      0.00%     80.86% # Class of committed instruction
system.cpu.commit.committedInstType_0::SimdShaSigma3            0      0.00%     80.86% # Class of committed instruction
system.cpu.commit.committedInstType_0::SimdPredAlu            0      0.00%     80.86% # Class of committed instruction
system.cpu.commit.committedInstType_0::MemRead       878591     12.83%     93.69% # Class of committed instruction
system.cpu.commit.committedInstType_0::MemWrite       380675      5.56%     99.25% # Class of committed instruction
system.cpu.commit.committedInstType_0::FloatMemRead        26721      0.39%     99.64% # Class of committed instruction
system.cpu.commit.committedInstType_0::FloatMemWrite        24446      0.36%    100.00% # Class of committed instruction
system.cpu.commit.committedInstType_0::IprAccess            0      0.00%    100.00% # Class of committed instruction
system.cpu.commit.committedInstType_0::InstPrefetch            0      0.00%    100.00% # Class of committed instruction
system.cpu.commit.committedInstType_0::total      6845422                       # Class of committed instruction
system.cpu.commit.committedInstType_1::No_OpClass        65412      0.96%      0.96% # Class of committed instruction
system.cpu.commit.committedInstType_1::IntAlu      5345366     78.09%     79.04% # Class of committed instruction
system.cpu.commit.committedInstType_1::IntMult          484      0.01%     79.05% # Class of committed instruction
system.cpu.commit.committedInstType_1::IntDiv        46057      0.67%     79.72% # Class of committed instruction
system.cpu.commit.committedInstType_1::FloatAdd         7566      0.11%     79.83% # Class of committed instruction
system.cpu.commit.committedInstType_1::FloatCmp            0      0.00%     79.83% # Class of committed instruction
system.cpu.commit.committedInstType_1::FloatCvt         1408      0.02%     79.85% # Class of committed instruction
system.cpu.commit.committedInstType_1::FloatMult            0      0.00%     79.85% # Class of committed instruction
system.cpu.commit.committedInstType_1::FloatMultAcc            0      0.00%     79.85% # Class of committed instruction
system.cpu.commit.committedInstType_1::FloatDiv            0      0.00%     79.85% # Class of committed instruction
system.cpu.commit.committedInstType_1::FloatMisc            0      0.00%     79.85% # Class of committed instruction
system.cpu.commit.committedInstType_1::FloatSqrt            0      0.00%     79.85% # Class of committed instruction
system.cpu.commit.committedInstType_1::SimdAdd         7892      0.12%     79.97% # Class of committed instruction
system.cpu.commit.committedInstType_1::SimdAddAcc            0      0.00%     79.97% # Class of committed instruction
system.cpu.commit.committedInstType_1::SimdAlu        20535      0.30%     80.27% # Class of committed instruction
system.cpu.commit.committedInstType_1::SimdCmp          174      0.00%     80.27% # Class of committed instruction
system.cpu.commit.committedInstType_1::SimdCvt        18930      0.28%     80.55% # Class of committed instruction
system.cpu.commit.committedInstType_1::SimdMisc        19572      0.29%     80.83% # Class of committed instruction
system.cpu.commit.committedInstType_1::SimdMult            0      0.00%     80.83% # Class of committed instruction
system.cpu.commit.committedInstType_1::SimdMultAcc            0      0.00%     80.83% # Class of committed instruction
system.cpu.commit.committedInstType_1::SimdShift         1377      0.02%     80.85% # Class of committed instruction
system.cpu.commit.committedInstType_1::SimdShiftAcc            0      0.00%     80.85% # Class of committed instruction
system.cpu.commit.committedInstType_1::SimdDiv            0      0.00%     80.85% # Class of committed instruction
system.cpu.commit.committedInstType_1::SimdSqrt            0      0.00%     80.85% # Class of committed instruction
system.cpu.commit.committedInstType_1::SimdFloatAdd            5      0.00%     80.85% # Class of committed instruction
system.cpu.commit.committedInstType_1::SimdFloatAlu            0      0.00%     80.85% # Class of committed instruction
system.cpu.commit.committedInstType_1::SimdFloatCmp            0      0.00%     80.85% # Class of committed instruction
system.cpu.commit.committedInstType_1::SimdFloatCvt          157      0.00%     80.86% # Class of committed instruction
system.cpu.commit.committedInstType_1::SimdFloatDiv            1      0.00%     80.86% # Class of committed instruction
system.cpu.commit.committedInstType_1::SimdFloatMisc            0      0.00%     80.86% # Class of committed instruction
system.cpu.commit.committedInstType_1::SimdFloatMult           52      0.00%     80.86% # Class of committed instruction
system.cpu.commit.committedInstType_1::SimdFloatMultAcc            0      0.00%     80.86% # Class of committed instruction
system.cpu.commit.committedInstType_1::SimdFloatSqrt            1      0.00%     80.86% # Class of committed instruction
system.cpu.commit.committedInstType_1::SimdReduceAdd            0      0.00%     80.86% # Class of committed instruction
system.cpu.commit.committedInstType_1::SimdReduceAlu            0      0.00%     80.86% # Class of committed instruction
system.cpu.commit.committedInstType_1::SimdReduceCmp            0      0.00%     80.86% # Class of committed instruction
system.cpu.commit.committedInstType_1::SimdFloatReduceAdd            0      0.00%     80.86% # Class of committed instruction
system.cpu.commit.committedInstType_1::SimdFloatReduceCmp            0      0.00%     80.86% # Class of committed instruction
system.cpu.commit.committedInstType_1::SimdAes            0      0.00%     80.86% # Class of committed instruction
system.cpu.commit.committedInstType_1::SimdAesMix            0      0.00%     80.86% # Class of committed instruction
system.cpu.commit.committedInstType_1::SimdSha1Hash            0      0.00%     80.86% # Class of committed instruction
system.cpu.commit.committedInstType_1::SimdSha1Hash2            0      0.00%     80.86% # Class of committed instruction
system.cpu.commit.committedInstType_1::SimdSha256Hash            0      0.00%     80.86% # Class of committed instruction
system.cpu.commit.committedInstType_1::SimdSha256Hash2            0      0.00%     80.86% # Class of committed instruction
system.cpu.commit.committedInstType_1::SimdShaSigma2            0      0.00%     80.86% # Class of committed instruction
system.cpu.commit.committedInstType_1::SimdShaSigma3            0      0.00%     80.86% # Class of committed instruction
system.cpu.commit.committedInstType_1::SimdPredAlu            0      0.00%     80.86% # Class of committed instruction
system.cpu.commit.committedInstType_1::MemRead       878591     12.83%     93.69% # Class of committed instruction
system.cpu.commit.committedInstType_1::MemWrite       380675      5.56%     99.25% # Class of committed instruction
system.cpu.commit.committedInstType_1::FloatMemRead        26721      0.39%     99.64% # Class of committed instruction
system.cpu.commit.committedInstType_1::FloatMemWrite        24446      0.36%    100.00% # Class of committed instruction
system.cpu.commit.committedInstType_1::IprAccess            0      0.00%    100.00% # Class of committed instruction
system.cpu.commit.committedInstType_1::InstPrefetch            0      0.00%    100.00% # Class of committed instruction
system.cpu.commit.committedInstType_1::total      6845422                       # Class of committed instruction
system.cpu.commit.committedInstType::total     13690844      0.00%      0.00% # Class of committed instruction
system.cpu.commit.commitEligibleSamples        951074                       # number cycles where commit BW limit reached
system.cpu.dcache.demand_hits::.cpu.data      2446337                       # number of demand (read+write) hits
system.cpu.dcache.demand_hits::total          2446337                       # number of demand (read+write) hits
system.cpu.dcache.overall_hits::.cpu.data      2446337                       # number of overall hits
system.cpu.dcache.overall_hits::total         2446337                       # number of overall hits
system.cpu.dcache.demand_misses::.cpu.data       251765                       # number of demand (read+write) misses
system.cpu.dcache.demand_misses::total         251765                       # number of demand (read+write) misses
system.cpu.dcache.overall_misses::.cpu.data       251765                       # number of overall misses
system.cpu.dcache.overall_misses::total        251765                       # number of overall misses
system.cpu.dcache.demand_miss_latency::.cpu.data   9402193685                       # number of demand (read+write) miss cycles
system.cpu.dcache.demand_miss_latency::total   9402193685                       # number of demand (read+write) miss cycles
system.cpu.dcache.overall_miss_latency::.cpu.data   9402193685                       # number of overall miss cycles
system.cpu.dcache.overall_miss_latency::total   9402193685                       # number of overall miss cycles
system.cpu.dcache.demand_accesses::.cpu.data      2698102                       # number of demand (read+write) accesses
system.cpu.dcache.demand_accesses::total      2698102                       # number of demand (read+write) accesses
system.cpu.dcache.overall_accesses::.cpu.data      2698102                       # number of overall (read+write) accesses
system.cpu.dcache.overall_accesses::total      2698102                       # number of overall (read+write) accesses
system.cpu.dcache.demand_miss_rate::.cpu.data     0.093312                       # miss rate for demand accesses
system.cpu.dcache.demand_miss_rate::total     0.093312                       # miss rate for demand accesses
system.cpu.dcache.overall_miss_rate::.cpu.data     0.093312                       # miss rate for overall accesses
system.cpu.dcache.overall_miss_rate::total     0.093312                       # miss rate for overall accesses
system.cpu.dcache.demand_avg_miss_latency::.cpu.data 37345.118205                       # average overall miss latency
system.cpu.dcache.demand_avg_miss_latency::total 37345.118205                       # average overall miss latency
system.cpu.dcache.overall_avg_miss_latency::.cpu.data 37345.118205                       # average overall miss latency
system.cpu.dcache.overall_avg_miss_latency::total 37345.118205                       # average overall miss latency
system.cpu.dcache.blocked_cycles::no_mshrs            0                       # number of cycles access was blocked
system.cpu.dcache.blocked_cycles::no_targets       883424                       # number of cycles access was blocked
system.cpu.dcache.blocked::no_mshrs                 0                       # number of cycles access was blocked
system.cpu.dcache.blocked::no_targets           10009                       # number of cycles access was blocked
system.cpu.dcache.avg_blocked_cycles::no_mshrs          nan                       # average number of cycles each access was blocked
system.cpu.dcache.avg_blocked_cycles::no_targets    88.262963                       # average number of cycles each access was blocked
system.cpu.dcache.writebacks::.writebacks        97959                       # number of writebacks
system.cpu.dcache.writebacks::total             97959                       # number of writebacks
system.cpu.dcache.demand_mshr_hits::.cpu.data       153685                       # number of demand (read+write) MSHR hits
system.cpu.dcache.demand_mshr_hits::total       153685                       # number of demand (read+write) MSHR hits
system.cpu.dcache.overall_mshr_hits::.cpu.data       153685                       # number of overall MSHR hits
system.cpu.dcache.overall_mshr_hits::total       153685                       # number of overall MSHR hits
system.cpu.dcache.demand_mshr_misses::.cpu.data        98080                       # number of demand (read+write) MSHR misses
system.cpu.dcache.demand_mshr_misses::total        98080                       # number of demand (read+write) MSHR misses
system.cpu.dcache.overall_mshr_misses::.cpu.data        98080                       # number of overall MSHR misses
system.cpu.dcache.overall_mshr_misses::total        98080                       # number of overall MSHR misses
system.cpu.dcache.demand_mshr_miss_latency::.cpu.data   2942319185                       # number of demand (read+write) MSHR miss cycles
system.cpu.dcache.demand_mshr_miss_latency::total   2942319185                       # number of demand (read+write) MSHR miss cycles
system.cpu.dcache.overall_mshr_miss_latency::.cpu.data   2942319185                       # number of overall MSHR miss cycles
system.cpu.dcache.overall_mshr_miss_latency::total   2942319185                       # number of overall MSHR miss cycles
system.cpu.dcache.demand_mshr_miss_rate::.cpu.data     0.036351                       # mshr miss rate for demand accesses
system.cpu.dcache.demand_mshr_miss_rate::total     0.036351                       # mshr miss rate for demand accesses
system.cpu.dcache.overall_mshr_miss_rate::.cpu.data     0.036351                       # mshr miss rate for overall accesses
system.cpu.dcache.overall_mshr_miss_rate::total     0.036351                       # mshr miss rate for overall accesses
system.cpu.dcache.demand_avg_mshr_miss_latency::.cpu.data 29999.176030                       # average overall mshr miss latency
system.cpu.dcache.demand_avg_mshr_miss_latency::total 29999.176030                       # average overall mshr miss latency
system.cpu.dcache.overall_avg_mshr_miss_latency::.cpu.data 29999.176030                       # average overall mshr miss latency
system.cpu.dcache.overall_avg_mshr_miss_latency::total 29999.176030                       # average overall mshr miss latency
system.cpu.dcache.replacements                   2721                       # number of replacements
system.cpu.dcache.expired                       95238                       # dead blocks evicted
system.cpu.dcache.ReadReq_hits::.cpu.data      1654813                       # number of ReadReq hits
system.cpu.dcache.ReadReq_hits::total         1654813                       # number of ReadReq hits
system.cpu.dcache.ReadReq_misses::.cpu.data       232921                       # number of ReadReq misses
system.cpu.dcache.ReadReq_misses::total        232921                       # number of ReadReq misses
system.cpu.dcache.ReadReq_miss_latency::.cpu.data   8758852500                       # number of ReadReq miss cycles
system.cpu.dcache.ReadReq_miss_latency::total   8758852500                       # number of ReadReq miss cycles
system.cpu.dcache.ReadReq_accesses::.cpu.data      1887734                       # number of ReadReq accesses(hits+misses)
system.cpu.dcache.ReadReq_accesses::total      1887734                       # number of ReadReq accesses(hits+misses)
system.cpu.dcache.ReadReq_miss_rate::.cpu.data     0.123387                       # miss rate for ReadReq accesses
system.cpu.dcache.ReadReq_miss_rate::total     0.123387                       # miss rate for ReadReq accesses
system.cpu.dcache.ReadReq_avg_miss_latency::.cpu.data 37604.391618                       # average ReadReq miss latency
system.cpu.dcache.ReadReq_avg_miss_latency::total 37604.391618                       # average ReadReq miss latency
system.cpu.dcache.ReadReq_mshr_hits::.cpu.data       153649                       # number of ReadReq MSHR hits
system.cpu.dcache.ReadReq_mshr_hits::total       153649                       # number of ReadReq MSHR hits
system.cpu.dcache.ReadReq_mshr_misses::.cpu.data        79272                       # number of ReadReq MSHR misses
system.cpu.dcache.ReadReq_mshr_misses::total        79272                       # number of ReadReq MSHR misses
system.cpu.dcache.ReadReq_mshr_miss_latency::.cpu.data   2318471500                       # number of ReadReq MSHR miss cycles
system.cpu.dcache.ReadReq_mshr_miss_latency::total   2318471500                       # number of ReadReq MSHR miss cycles
system.cpu.dcache.ReadReq_mshr_miss_rate::.cpu.data     0.041993                       # mshr miss rate for ReadReq accesses
system.cpu.dcache.ReadReq_mshr_miss_rate::total     0.041993                       # mshr miss rate for ReadReq accesses
system.cpu.dcache.ReadReq_avg_mshr_miss_latency::.cpu.data 29247.041831                       # average ReadReq mshr miss latency
system.cpu.dcache.ReadReq_avg_mshr_miss_latency::total 29247.041831                       # average ReadReq mshr miss latency
system.cpu.dcache.WriteReq_hits::.cpu.data       791524                       # number of WriteReq hits
system.cpu.dcache.WriteReq_hits::total         791524                       # number of WriteReq hits
system.cpu.dcache.WriteReq_misses::.cpu.data        18844                       # number of WriteReq misses
system.cpu.dcache.WriteReq_misses::total        18844                       # number of WriteReq misses
system.cpu.dcache.WriteReq_miss_latency::.cpu.data    643341185                       # number of WriteReq miss cycles
system.cpu.dcache.WriteReq_miss_latency::total    643341185                       # number of WriteReq miss cycles
system.cpu.dcache.WriteReq_accesses::.cpu.data       810368                       # number of WriteReq accesses(hits+misses)
system.cpu.dcache.WriteReq_accesses::total       810368                       # number of WriteReq accesses(hits+misses)
system.cpu.dcache.WriteReq_miss_rate::.cpu.data     0.023254                       # miss rate for WriteReq accesses
system.cpu.dcache.WriteReq_miss_rate::total     0.023254                       # miss rate for WriteReq accesses
system.cpu.dcache.WriteReq_avg_miss_latency::.cpu.data 34140.372798                       # average WriteReq miss latency
system.cpu.dcache.WriteReq_avg_miss_latency::total 34140.372798                       # average WriteReq miss latency
system.cpu.dcache.WriteReq_mshr_hits::.cpu.data           36                       # number of WriteReq MSHR hits
system.cpu.dcache.WriteReq_mshr_hits::total           36                       # number of WriteReq MSHR hits
system.cpu.dcache.WriteReq_mshr_misses::.cpu.data        18808                       # number of WriteReq MSHR misses
system.cpu.dcache.WriteReq_mshr_misses::total        18808                       # number of WriteReq MSHR misses
system.cpu.dcache.WriteReq_mshr_miss_latency::.cpu.data    623847685                       # number of WriteReq MSHR miss cycles
system.cpu.dcache.WriteReq_mshr_miss_latency::total    623847685                       # number of WriteReq MSHR miss cycles
system.cpu.dcache.WriteReq_mshr_miss_rate::.cpu.data     0.023209                       # mshr miss rate for WriteReq accesses
system.cpu.dcache.WriteReq_mshr_miss_rate::total     0.023209                       # mshr miss rate for WriteReq accesses
system.cpu.dcache.WriteReq_avg_mshr_miss_latency::.cpu.data 33169.272916                       # average WriteReq mshr miss latency
system.cpu.dcache.WriteReq_avg_mshr_miss_latency::total 33169.272916                       # average WriteReq mshr miss latency
system.cpu.dcache.power_state.pwrStateResidencyTicks::UNDEFINED   3872946000                       # Cumulative time (in ticks) in various power states
system.cpu.dcache.tags.tagsinuse           147.744317                       # Cycle average of tags in use
system.cpu.dcache.tags.total_refs             2544421                       # Total number of references to valid blocks.
system.cpu.dcache.tags.sampled_refs             98072                       # Sample count of references to valid blocks.
system.cpu.dcache.tags.avg_refs             25.944418                       # Average number of references to valid blocks.
system.cpu.dcache.tags.warmup_cycle            191500                       # Cycle when the warmup percentage was hit.
system.cpu.dcache.tags.occ_blocks::.cpu.data   147.744317                       # Average occupied blocks per requestor
system.cpu.dcache.tags.occ_percent::.cpu.data     0.288563                       # Average percentage of cache occupancy
system.cpu.dcache.tags.occ_percent::total     0.288563                       # Average percentage of cache occupancy
system.cpu.dcache.tags.occ_task_id_blocks::1024          113                       # Occupied blocks per task id
system.cpu.dcache.tags.age_task_id_blocks_1024::0          102                       # Occupied blocks per task id
system.cpu.dcache.tags.age_task_id_blocks_1024::1           10                       # Occupied blocks per task id
system.cpu.dcache.tags.age_task_id_blocks_1024::2            1                       # Occupied blocks per task id
system.cpu.dcache.tags.occ_task_id_percent::1024     0.220703                       # Percentage of cache occupancy per task id
system.cpu.dcache.tags.tag_accesses          21682888                       # Number of tag accesses
system.cpu.dcache.tags.data_accesses         21682888                       # Number of data accesses
system.cpu.dcache.tags.power_state.pwrStateResidencyTicks::UNDEFINED   3872946000                       # Cumulative time (in ticks) in various power states
system.cpu.decode.idleCycles                  2566401                       # Number of cycles decode is idle
system.cpu.decode.blockedCycles               7025592                       # Number of cycles decode is blocked
system.cpu.decode.runCycles                   3372505                       # Number of cycles decode is running
system.cpu.decode.unblockCycles               1217026                       # Number of cycles decode is unblocking
system.cpu.decode.squashCycles                  59169                       # Number of cycles decode is squashing
system.cpu.decode.branchResolved               742318                       # Number of times decode resolved a  branch
system.cpu.decode.branchMispred                 16545                       # Number of times decode detected a branch misprediction
system.cpu.decode.decodedInsts               16385032                       # Number of instructions handled by decode
system.cpu.decode.squashedInsts                315811                       # Number of squashed instructions handled by decode
system.cpu.dtb.rdAccesses                     2012880                       # TLB accesses on read requests
system.cpu.dtb.wrAccesses                      901634                       # TLB accesses on write requests
system.cpu.dtb.rdMisses                        172961                       # TLB misses on read requests
system.cpu.dtb.wrMisses                         11006                       # TLB misses on write requests
system.cpu.dtb.walker.power_state.pwrStateResidencyTicks::UNDEFINED   3872946000                       # Cumulative time (in ticks) in various power states
system.cpu.dtb_walker_cache.blocked_cycles::no_mshrs            0                       # number of cycles access was blocked
system.cpu.dtb_walker_cache.blocked_cycles::no_targets            0                       # number of cycles access was blocked
system.cpu.dtb_walker_cache.blocked::no_mshrs            0                       # number of cycles access was blocked
system.cpu.dtb_walker_cache.blocked::no_targets            0                       # number of cycles access was blocked
system.cpu.dtb_walker_cache.avg_blocked_cycles::no_mshrs          nan                       # average number of cycles each access was blocked
system.cpu.dtb_walker_cache.avg_blocked_cycles::no_targets          nan                       # average number of cycles each access was blocked
system.cpu.dtb_walker_cache.replacements            0                       # number of replacements
system.cpu.dtb_walker_cache.expired                 0                       # dead blocks evicted
system.cpu.dtb_walker_cache.power_state.pwrStateResidencyTicks::UNDEFINED   3872946000                       # Cumulative time (in ticks) in various power states
system.cpu.dtb_walker_cache.tags.tagsinuse            0                       # Cycle average of tags in use
system.cpu.dtb_walker_cache.tags.total_refs            0                       # Total number of references to valid blocks.
system.cpu.dtb_walker_cache.tags.sampled_refs            0                       # Sample count of references to valid blocks.
system.cpu.dtb_walker_cache.tags.avg_refs          nan                       # Average number of references to valid blocks.
system.cpu.dtb_walker_cache.tags.warmup_cycle            0                       # Cycle when the warmup percentage was hit.
system.cpu.dtb_walker_cache.tags.tag_accesses            0                       # Number of tag accesses
system.cpu.dtb_walker_cache.tags.data_accesses            0                       # Number of data accesses
system.cpu.dtb_walker_cache.tags.power_state.pwrStateResidencyTicks::UNDEFINED   3872946000                       # Cumulative time (in ticks) in various power states
system.cpu.fetch.icacheStallCycles              59121                       # Number of cycles fetch is stalled on an Icache miss
system.cpu.fetch.insts                        9970643                       # Number of instructions fetch has processed
system.cpu.fetch.branches                     1787904                       # Number of branches that fetch encountered
system.cpu.fetch.predictedBranches             908969                       # Number of branches that fetch has predicted taken
system.cpu.fetch.cycles                       5050845                       # Number of cycles fetch has run and was not squashing or blocked
system.cpu.fetch.squashCycles                   75416                       # Number of cycles fetch has spent squashing
system.cpu.fetch.tlbCycles                       4892                       # Number of cycles fetch has spent waiting for tlb
system.cpu.fetch.miscStallCycles                   60                       # Number of cycles fetch has spent waiting on interrupts,or bad addresses, or out of MSHRs
system.cpu.fetch.cacheLines                   3156420                       # Number of cache lines fetched
system.cpu.fetch.icacheSquashes                  8987                       # Number of outstanding Icache misses that were squashed
system.cpu.fetch.tlbSquashes                     3562                       # Number of outstanding ITLB misses that were squashed
system.cpu.fetch.SMTDist::samples             7617158                       # Number of Cycles each Thread Fetched
system.cpu.fetch.SMTDist::mean               0.079058                       # Number of Cycles each Thread Fetched
system.cpu.fetch.SMTDist::stdev              0.854289                       # Number of Cycles each Thread Fetched
system.cpu.fetch.SMTDist::underflows                0      0.00%      0.00% # Number of Cycles each Thread Fetched
system.cpu.fetch.SMTDist::-1                  2502240     32.85%     32.85% # Number of Cycles each Thread Fetched
system.cpu.fetch.SMTDist::0                   2010479     26.39%     59.24% # Number of Cycles each Thread Fetched
system.cpu.fetch.SMTDist::1                   3104439     40.76%    100.00% # Number of Cycles each Thread Fetched
system.cpu.fetch.SMTDist::2                         0      0.00%    100.00% # Number of Cycles each Thread Fetched
system.cpu.fetch.SMTDist::overflows                 0      0.00%    100.00% # Number of Cycles each Thread Fetched
system.cpu.fetch.SMTDist::min_value                -1                       # Number of Cycles each Thread Fetched
system.cpu.fetch.SMTDist::max_value                 1                       # Number of Cycles each Thread Fetched
system.cpu.fetch.SMTDist::total               7617158                       # Number of Cycles each Thread Fetched
system.cpu.fetch.nisnDist::samples            7617158                       # Number of instructions fetched each cycle (Total)
system.cpu.fetch.nisnDist::mean              2.359798                       # Number of instructions fetched each cycle (Total)
system.cpu.fetch.nisnDist::stdev             2.844953                       # Number of instructions fetched each cycle (Total)
system.cpu.fetch.nisnDist::underflows               0      0.00%      0.00% # Number of instructions fetched each cycle (Total)
system.cpu.fetch.nisnDist::0                  3839934     50.41%     50.41% # Number of instructions fetched each cycle (Total)
system.cpu.fetch.nisnDist::1                   329045      4.32%     54.73% # Number of instructions fetched each cycle (Total)
system.cpu.fetch.nisnDist::2                   300939      3.95%     58.68% # Number of instructions fetched each cycle (Total)
system.cpu.fetch.nisnDist::3                   606837      7.97%     66.65% # Number of instructions fetched each cycle (Total)
system.cpu.fetch.nisnDist::4                   602952      7.92%     74.56% # Number of instructions fetched each cycle (Total)
system.cpu.fetch.nisnDist::5                   517126      6.79%     81.35% # Number of instructions fetched each cycle (Total)
system.cpu.fetch.nisnDist::6                   322975      4.24%     85.59% # Number of instructions fetched each cycle (Total)
system.cpu.fetch.nisnDist::7                   490569      6.44%     92.03% # Number of instructions fetched each cycle (Total)
system.cpu.fetch.nisnDist::8                   606781      7.97%    100.00% # Number of instructions fetched each cycle (Total)
system.cpu.fetch.nisnDist::overflows                0      0.00%    100.00% # Number of instructions fetched each cycle (Total)
system.cpu.fetch.nisnDist::min_value                0                       # Number of instructions fetched each cycle (Total)
system.cpu.fetch.nisnDist::max_value                8                       # Number of instructions fetched each cycle (Total)
system.cpu.fetch.nisnDist::total              7617158                       # Number of instructions fetched each cycle (Total)
system.cpu.fetch.branchRate                  0.230820                       # Number of branch fetches per cycle
system.cpu.fetch.rate                        1.287217                       # Number of inst fetches per cycle
system.cpu.icache.demand_hits::.cpu.inst      3131414                       # number of demand (read+write) hits
system.cpu.icache.demand_hits::total          3131414                       # number of demand (read+write) hits
system.cpu.icache.overall_hits::.cpu.inst      3131414                       # number of overall hits
system.cpu.icache.overall_hits::total         3131414                       # number of overall hits
system.cpu.icache.demand_misses::.cpu.inst        25005                       # number of demand (read+write) misses
system.cpu.icache.demand_misses::total          25005                       # number of demand (read+write) misses
system.cpu.icache.overall_misses::.cpu.inst        25005                       # number of overall misses
system.cpu.icache.overall_misses::total         25005                       # number of overall misses
system.cpu.icache.demand_miss_latency::.cpu.inst    839128000                       # number of demand (read+write) miss cycles
system.cpu.icache.demand_miss_latency::total    839128000                       # number of demand (read+write) miss cycles
system.cpu.icache.overall_miss_latency::.cpu.inst    839128000                       # number of overall miss cycles
system.cpu.icache.overall_miss_latency::total    839128000                       # number of overall miss cycles
[...]
system.mem_ctrls1.dram.perBankWrBursts::6            3                       # Per bank write bursts
system.mem_ctrls1.dram.perBankWrBursts::7           10                       # Per bank write bursts
system.mem_ctrls1.dram.perBankWrBursts::8            6                       # Per bank write bursts
system.mem_ctrls1.dram.perBankWrBursts::9           15                       # Per bank write bursts
system.mem_ctrls1.dram.perBankWrBursts::10            3                       # Per bank write bursts
system.mem_ctrls1.dram.perBankWrBursts::11            5                       # Per bank write bursts
system.mem_ctrls1.dram.perBankWrBursts::12           12                       # Per bank write bursts
system.mem_ctrls1.dram.perBankWrBursts::13            0                       # Per bank write bursts
system.mem_ctrls1.dram.perBankWrBursts::14            0                       # Per bank write bursts
system.mem_ctrls1.dram.perBankWrBursts::15            0                       # Per bank write bursts
system.mem_ctrls1.dram.perBankWrBursts::16            0                       # Per bank write bursts
system.mem_ctrls1.dram.perBankWrBursts::17            1                       # Per bank write bursts
system.mem_ctrls1.dram.perBankWrBursts::18            0                       # Per bank write bursts
system.mem_ctrls1.dram.perBankWrBursts::19            0                       # Per bank write bursts
system.mem_ctrls1.dram.perBankWrBursts::20            2                       # Per bank write bursts
system.mem_ctrls1.dram.perBankWrBursts::21            5                       # Per bank write bursts
system.mem_ctrls1.dram.perBankWrBursts::22            1                       # Per bank write bursts
system.mem_ctrls1.dram.perBankWrBursts::23           16                       # Per bank write bursts
system.mem_ctrls1.dram.perBankWrBursts::24            5                       # Per bank write bursts
system.mem_ctrls1.dram.perBankWrBursts::25            1                       # Per bank write bursts
system.mem_ctrls1.dram.perBankWrBursts::26            0                       # Per bank write bursts
system.mem_ctrls1.dram.perBankWrBursts::27            0                       # Per bank write bursts
system.mem_ctrls1.dram.perBankWrBursts::28           13                       # Per bank write bursts
system.mem_ctrls1.dram.perBankWrBursts::29            1                       # Per bank write bursts
system.mem_ctrls1.dram.perBankWrBursts::30            0                       # Per bank write bursts
system.mem_ctrls1.dram.perBankWrBursts::31            4                       # Per bank write bursts
system.mem_ctrls1.dram.totQLat              301261793                       # Total ticks spent queuing
system.mem_ctrls1.dram.totBusLat             82270412                       # Total ticks spent in databus transfers
system.mem_ctrls1.dram.totMemAccLat         733156765                       # Total ticks spent from burst creation until serviced by the DRAM
system.mem_ctrls1.dram.avgQLat               12201.28                       # Average queueing delay per DRAM burst
system.mem_ctrls1.dram.avgBusLat              3332.00                       # Average bus latency per DRAM burst
system.mem_ctrls1.dram.avgMemAccLat          29693.28                       # Average memory access latency per DRAM burst
system.mem_ctrls1.dram.readRowHits              18065                       # Number of row buffer hits during reads
system.mem_ctrls1.dram.writeRowHits                66                       # Number of row buffer hits during writes
system.mem_ctrls1.dram.readRowHitRate           73.16                       # Row buffer hit rate for reads
system.mem_ctrls1.dram.writeRowHitRate          61.11                       # Row buffer hit rate for writes
system.mem_ctrls1.dram.bytesPerActivate::samples         6662                       # Bytes accessed per row activation
system.mem_ctrls1.dram.bytesPerActivate::mean   238.064245                       # Bytes accessed per row activation
system.mem_ctrls1.dram.bytesPerActivate::gmean   135.659635                       # Bytes accessed per row activation
system.mem_ctrls1.dram.bytesPerActivate::stdev   299.439812                       # Bytes accessed per row activation
system.mem_ctrls1.dram.bytesPerActivate::0-127         3516     52.78%     52.78% # Bytes accessed per row activation
system.mem_ctrls1.dram.bytesPerActivate::128-255         1394     20.92%     73.70% # Bytes accessed per row activation
system.mem_ctrls1.dram.bytesPerActivate::256-383          437      6.56%     80.26% # Bytes accessed per row activation
system.mem_ctrls1.dram.bytesPerActivate::384-511          287      4.31%     84.57% # Bytes accessed per row activation
system.mem_ctrls1.dram.bytesPerActivate::512-639          149      2.24%     86.81% # Bytes accessed per row activation
system.mem_ctrls1.dram.bytesPerActivate::640-767          117      1.76%     88.56% # Bytes accessed per row activation
system.mem_ctrls1.dram.bytesPerActivate::768-895           92      1.38%     89.94% # Bytes accessed per row activation
system.mem_ctrls1.dram.bytesPerActivate::896-1023           76      1.14%     91.08% # Bytes accessed per row activation
system.mem_ctrls1.dram.bytesPerActivate::1024-1151          594      8.92%    100.00% # Bytes accessed per row activation
system.mem_ctrls1.dram.bytesPerActivate::total         6662                       # Bytes accessed per row activation
system.mem_ctrls1.dram.bytesRead              1580224                       # Total number of bytes read from DRAM
system.mem_ctrls1.dram.bytesWritten              6912                       # Total number of bytes written to DRAM
system.mem_ctrls1.dram.avgRdBW             408.016017                       # Average DRAM read bandwidth in MiBytes/s
system.mem_ctrls1.dram.avgWrBW               1.784688                       # Average DRAM write bandwidth in MiBytes/s
system.mem_ctrls1.dram.peakBW                19207.00                       # Theoretical peak bandwidth in MiByte/s
system.mem_ctrls1.dram.busUtil                   2.13                       # Data bus utilization in percentage
system.mem_ctrls1.dram.busUtilRead               2.12                       # Data bus utilization in percentage for reads
system.mem_ctrls1.dram.busUtilWrite              0.01                       # Data bus utilization in percentage for writes
system.mem_ctrls1.dram.pageHitRate              73.11                       # Row buffer hit rate, read and write combined
system.mem_ctrls1.dram.power_state.pwrStateResidencyTicks::UNDEFINED   3872946000                       # Cumulative time (in ticks) in various power states
system.mem_ctrls1.dram.rank0.actEnergy   10581925.536000                       # Energy for activate commands per rank (pJ)
system.mem_ctrls1.dram.rank0.preEnergy   14056095.312000                       # Energy for precharge commands per rank (pJ)
system.mem_ctrls1.dram.rank0.readEnergy  56549723.059200                       # Energy for read commands per rank (pJ)
system.mem_ctrls1.dram.rank0.writeEnergy 221751.264000                       # Energy for write commands per rank (pJ)
system.mem_ctrls1.dram.rank0.refreshEnergy 688532680.718403                       # Energy for refresh commands per rank (pJ)
system.mem_ctrls1.dram.rank0.actBackEnergy 2927232750.355199                       # Energy for active background per rank (pJ)
system.mem_ctrls1.dram.rank0.preBackEnergy 279085984.934400                       # Energy for precharge background per rank (pJ)
system.mem_ctrls1.dram.rank0.actPowerDownEnergy            0                       # Energy for active power-down per rank (pJ)
system.mem_ctrls1.dram.rank0.prePowerDownEnergy            0                       # Energy for precharge power-down per rank (pJ)
system.mem_ctrls1.dram.rank0.selfRefreshEnergy            0                       # Energy for self refresh per rank (pJ)
system.mem_ctrls1.dram.rank0.totalEnergy 3976260911.179198                       # Total energy per rank (pJ)
system.mem_ctrls1.dram.rank0.averagePower  1026.676053                       # Core power per rank (mW)
system.mem_ctrls1.dram.rank0.totalIdleTime            0                       # Total Idle time Per DRAM Rank
system.mem_ctrls1.dram.rank0.pwrStateTime::IDLE    412530191                       # Time in different power states
system.mem_ctrls1.dram.rank0.pwrStateTime::REF    173950000                       # Time in different power states
system.mem_ctrls1.dram.rank0.pwrStateTime::SREF            0                       # Time in different power states
system.mem_ctrls1.dram.rank0.pwrStateTime::PRE_PDN            0                       # Time in different power states
system.mem_ctrls1.dram.rank0.pwrStateTime::ACT   3286465809                       # Time in different power states
system.mem_ctrls1.dram.rank0.pwrStateTime::ACT_PDN            0                       # Time in different power states
system.mem_ctrls1.dram.rank1.actEnergy   10213912.800000                       # Energy for activate commands per rank (pJ)
system.mem_ctrls1.dram.rank1.preEnergy   13566827.097600                       # Energy for precharge commands per rank (pJ)
system.mem_ctrls1.dram.rank1.readEnergy  47308445.049600                       # Energy for read commands per rank (pJ)
system.mem_ctrls1.dram.rank1.writeEnergy 184166.304000                       # Energy for write commands per rank (pJ)
system.mem_ctrls1.dram.rank1.refreshEnergy 688532680.718403                       # Energy for refresh commands per rank (pJ)
system.mem_ctrls1.dram.rank1.actBackEnergy 2812255663.593599                       # Energy for active background per rank (pJ)
system.mem_ctrls1.dram.rank1.preBackEnergy 367429961.203200                       # Energy for precharge background per rank (pJ)
system.mem_ctrls1.dram.rank1.actPowerDownEnergy            0                       # Energy for active power-down per rank (pJ)
system.mem_ctrls1.dram.rank1.prePowerDownEnergy            0                       # Energy for precharge power-down per rank (pJ)
system.mem_ctrls1.dram.rank1.selfRefreshEnergy            0                       # Energy for self refresh per rank (pJ)
system.mem_ctrls1.dram.rank1.totalEnergy 3939491656.766397                       # Total energy per rank (pJ)
system.mem_ctrls1.dram.rank1.averagePower  1017.182180                       # Core power per rank (mW)
system.mem_ctrls1.dram.rank1.totalIdleTime            0                       # Total Idle time Per DRAM Rank
system.mem_ctrls1.dram.rank1.pwrStateTime::IDLE    548335813                       # Time in different power states
system.mem_ctrls1.dram.rank1.pwrStateTime::REF    173950000                       # Time in different power states
system.mem_ctrls1.dram.rank1.pwrStateTime::SREF            0                       # Time in different power states
system.mem_ctrls1.dram.rank1.pwrStateTime::PRE_PDN            0                       # Time in different power states
system.mem_ctrls1.dram.rank1.pwrStateTime::ACT   3150660187                       # Time in different power states
system.mem_ctrls1.dram.rank1.pwrStateTime::ACT_PDN            0                       # Time in different power states
system.mem_ctrls1.power_state.pwrStateResidencyTicks::UNDEFINED   3872946000                       # Cumulative time (in ticks) in various power states
system.membus.trans_dist::ReadResp              42668                       # Transaction distribution
system.membus.trans_dist::WritebackDirty          341                       # Transaction distribution
system.membus.trans_dist::CleanEvict              968                       # Transaction distribution
system.membus.trans_dist::ReadExReq              6820                       # Transaction distribution
system.membus.trans_dist::ReadExResp             6820                       # Transaction distribution
system.membus.trans_dist::ReadSharedReq         42668                       # Transaction distribution
system.membus.pkt_count_system.l2.mem_side_port::system.mem_ctrls0.port        50184                       # Packet count per connected requestor and responder (bytes)
system.membus.pkt_count_system.l2.mem_side_port::system.mem_ctrls1.port        50101                       # Packet count per connected requestor and responder (bytes)
system.membus.pkt_count_system.l2.mem_side_port::total       100285                       # Packet count per connected requestor and responder (bytes)
system.membus.pkt_count::total                 100285                       # Packet count per connected requestor and responder (bytes)
system.membus.pkt_size_system.l2.mem_side_port::system.mem_ctrls0.port      1596096                       # Cumulative packet size per connected requestor and responder (bytes)
system.membus.pkt_size_system.l2.mem_side_port::system.mem_ctrls1.port      1592960                       # Cumulative packet size per connected requestor and responder (bytes)
system.membus.pkt_size_system.l2.mem_side_port::total      3189056                       # Cumulative packet size per connected requestor and responder (bytes)
system.membus.pkt_size::total                 3189056                       # Cumulative packet size per connected requestor and responder (bytes)
system.membus.snoops                                0                       # Total snoops (count)
system.membus.snoopTraffic                          0                       # Total snoop traffic (bytes)
system.membus.snoop_fanout::samples             49488                       # Request fanout histogram
system.membus.snoop_fanout::mean                    0                       # Request fanout histogram
system.membus.snoop_fanout::stdev                   0                       # Request fanout histogram
system.membus.snoop_fanout::underflows              0      0.00%      0.00% # Request fanout histogram
system.membus.snoop_fanout::0                   49488    100.00%    100.00% # Request fanout histogram
system.membus.snoop_fanout::1                       0      0.00%    100.00% # Request fanout histogram
system.membus.snoop_fanout::overflows               0      0.00%    100.00% # Request fanout histogram
system.membus.snoop_fanout::min_value               0                       # Request fanout histogram
system.membus.snoop_fanout::max_value               0                       # Request fanout histogram
system.membus.snoop_fanout::total               49488                       # Request fanout histogram
system.membus.power_state.pwrStateResidencyTicks::UNDEFINED   3872946000                       # Cumulative time (in ticks) in various power states
system.membus.reqLayer4.occupancy            32672600                       # Layer occupancy (ticks)
system.membus.reqLayer4.utilization               0.8                       # Layer utilization (%)
system.membus.reqLayer5.occupancy            32511542                       # Layer occupancy (ticks)
system.membus.reqLayer5.utilization               0.8                       # Layer utilization (%)
system.membus.respLayer1.occupancy          262693292                       # Layer occupancy (ticks)
system.membus.respLayer1.utilization              6.8                       # Layer utilization (%)
system.tol2bus.trans_dist::ReadResp            101220                       # Transaction distribution
system.tol2bus.trans_dist::WritebackDirty        43711                       # Transaction distribution
system.tol2bus.trans_dist::WritebackClean        76024                       # Transaction distribution
system.tol2bus.trans_dist::CleanEvict            1001                       # Transaction distribution
system.tol2bus.trans_dist::HardPFReq            17142                       # Transaction distribution
system.tol2bus.trans_dist::UpgradeReq               8                       # Transaction distribution
system.tol2bus.trans_dist::UpgradeResp              8                       # Transaction distribution
system.tol2bus.trans_dist::ReadExReq            18807                       # Transaction distribution
system.tol2bus.trans_dist::ReadExResp           18807                       # Transaction distribution
system.tol2bus.trans_dist::ReadCleanReq         21955                       # Transaction distribution
system.tol2bus.trans_dist::ReadSharedReq        79265                       # Transaction distribution
system.tol2bus.pkt_count_system.cpu.icache.mem_side_port::system.l2.cpu_side_port        65327                       # Packet count per connected requestor and responder (bytes)
system.tol2bus.pkt_count_system.cpu.dcache.mem_side_port::system.l2.cpu_side_port       294119                       # Packet count per connected requestor and responder (bytes)
system.tol2bus.pkt_count::total                359446                       # Packet count per connected requestor and responder (bytes)
system.tol2bus.pkt_size_system.cpu.icache.mem_side_port::system.l2.cpu_side_port      2775808                       # Cumulative packet size per connected requestor and responder (bytes)
system.tol2bus.pkt_size_system.cpu.dcache.mem_side_port::system.l2.cpu_side_port     12545984                       # Cumulative packet size per connected requestor and responder (bytes)
system.tol2bus.pkt_size::total               15321792                       # Cumulative packet size per connected requestor and responder (bytes)
system.tol2bus.snoops                           18502                       # Total snoops (count)
system.tol2bus.snoopTraffic                     22976                       # Total snoop traffic (bytes)
system.tol2bus.snoop_fanout::samples           138519                       # Request fanout histogram
system.tol2bus.snoop_fanout::mean            0.001162                       # Request fanout histogram
system.tol2bus.snoop_fanout::stdev           0.034073                       # Request fanout histogram
system.tol2bus.snoop_fanout::underflows             0      0.00%      0.00% # Request fanout histogram
system.tol2bus.snoop_fanout::0                 138358     99.88%     99.88% # Request fanout histogram
system.tol2bus.snoop_fanout::1                    161      0.12%    100.00% # Request fanout histogram
system.tol2bus.snoop_fanout::2                      0      0.00%    100.00% # Request fanout histogram
system.tol2bus.snoop_fanout::3                      0      0.00%    100.00% # Request fanout histogram
system.tol2bus.snoop_fanout::4                      0      0.00%    100.00% # Request fanout histogram
system.tol2bus.snoop_fanout::overflows              0      0.00%    100.00% # Request fanout histogram
system.tol2bus.snoop_fanout::min_value              0                       # Request fanout histogram
system.tol2bus.snoop_fanout::max_value              1                       # Request fanout histogram
system.tol2bus.snoop_fanout::total             138519                       # Request fanout histogram
system.tol2bus.power_state.pwrStateResidencyTicks::UNDEFINED   3872946000                       # Cumulative time (in ticks) in various power states
system.tol2bus.reqLayer0.occupancy          239108500                       # Layer occupancy (ticks)
system.tol2bus.reqLayer0.utilization              6.2                       # Layer utilization (%)
system.tol2bus.respLayer0.occupancy          32982400                       # Layer occupancy (ticks)
system.tol2bus.respLayer0.utilization             0.9                       # Layer utilization (%)
system.tol2bus.respLayer1.occupancy         147130962                       # Layer occupancy (ticks)
system.tol2bus.respLayer1.utilization             3.8                       # Layer utilization (%)
system.voltage_domain.voltage                       1                       # Voltage in Volts

---------- End Simulation Statistics   ----------
