
---------- Begin Simulation Statistics ----------
final_tick                               1217350888000                       # Number of ticks from beginning of simulation (restored from checkpoints and never reset)
host_mem_usage                               68008196                       # Number of bytes of host memory used
host_seconds                                  6447.58                       # Real time elapsed on the host
host_tick_rate                              188807310                       # Simulator tick rate (ticks/s)
sim_freq                                 1000000000000                       # Frequency of simulated ticks
sim_seconds                                  1.217351                       # Number of seconds simulated
sim_ticks                                1217350888000                       # Number of ticks simulated
system.cpu.cc_regfile_reads                 150550202                       # number of cc regfile reads
system.cpu.cc_regfile_writes                119680361                       # number of cc regfile writes
system.cpu.committedInsts::0                 99990271                       # Number of Instructions Simulated
system.cpu.committedInsts::1                100000000                       # Number of Instructions Simulated
system.cpu.committedInsts::total            199990271                       # Number of Instructions Simulated
system.cpu.committedOps::0                  199815752                       # Number of Ops (including micro ops) Simulated
system.cpu.committedOps::1                  199835209                       # Number of Ops (including micro ops) Simulated
system.cpu.committedOps::total              399650961                       # Number of Ops (including micro ops) Simulated
system.cpu.cpi::0                           24.349387                       # CPI: Cycles Per Instruction
system.cpu.cpi::1                           24.347018                       # CPI: Cycles Per Instruction
system.cpu.cpi_total                        12.174101                       # CPI: Total CPI of All Threads
system.cpu.fp_regfile_reads                 257273779                       # number of floating regfile reads
system.cpu.fp_regfile_writes                    12581                       # number of floating regfile writes
system.cpu.idleCycles                           13827                       # Total number of cycles that the CPU has spent unscheduled due to idling
system.cpu.iew.branchMispredicts                15406                       # Number of branch mispredicts detected at execute
system.cpu.iew.exec_branches::0              14935825                       # Number of branches executed
system.cpu.iew.exec_branches::1              15170333                       # Number of branches executed
system.cpu.iew.exec_branches::total          30106158                       # Number of branches executed
system.cpu.iew.exec_nop::0                          0                       # number of nop insts executed
system.cpu.iew.exec_nop::1                          0                       # number of nop insts executed
system.cpu.iew.exec_nop::total                      0                       # number of nop insts executed
system.cpu.iew.exec_rate                     0.170777                       # Inst execution rate
system.cpu.iew.exec_refs::0                 116638946                       # number of memory reference insts executed
system.cpu.iew.exec_refs::1                 118290373                       # number of memory reference insts executed
system.cpu.iew.exec_refs::total             234929319                       # number of memory reference insts executed
system.cpu.iew.exec_stores::0               116556783                       # Number of stores executed
system.cpu.iew.exec_stores::1               118204368                       # Number of stores executed
system.cpu.iew.exec_stores::total           234761151                       # Number of stores executed
system.cpu.iew.exec_swp::0                          0                       # number of swp insts executed
system.cpu.iew.exec_swp::1                          0                       # number of swp insts executed
system.cpu.iew.exec_swp::total                      0                       # number of swp insts executed
system.cpu.iew.iewBlockCycles                 2150109                       # Number of cycles IEW is blocking
system.cpu.iew.iewDispLoadInsts                179698                       # Number of dispatched load instructions
system.cpu.iew.iewDispNonSpecInsts                 66                       # Number of dispatched non-speculative instructions
system.cpu.iew.iewDispSquashedInsts                 0                       # Number of squashed instructions skipped by dispatch
system.cpu.iew.iewDispStoreInsts            238281275                       # Number of dispatched store instructions
system.cpu.iew.iewDispatchedInsts           419471915                       # Number of instructions dispatched to IQ
system.cpu.iew.iewExecLoadInsts::0              82163                       # Number of load instructions executed
system.cpu.iew.iewExecLoadInsts::1              86005                       # Number of load instructions executed
system.cpu.iew.iewExecLoadInsts::total         168168                       # Number of load instructions executed
system.cpu.iew.iewExecSquashedInsts             67623                       # Number of squashed instructions skipped in execute
system.cpu.iew.iewExecutedInsts             415791530                       # Number of executed instructions
system.cpu.iew.iewIQFullEvents                    590                       # Number of times the IQ has become full, causing a stall
system.cpu.iew.iewIdleCycles                        0                       # Number of cycles IEW is idle
system.cpu.iew.iewLSQFullEvents              21703077                       # Number of times the LSQ has become full, causing a stall
system.cpu.iew.iewSquashCycles                 456065                       # Number of cycles IEW is squashing
system.cpu.iew.iewUnblockCycles              21702857                       # Number of cycles IEW is unblocking
system.cpu.iew.memOrderViolationEvents            178                       # Number of memory order violations
system.cpu.iew.predictedNotTakenIncorrect        11038                       # Number of branches that were predicted not taken incorrectly
system.cpu.iew.predictedTakenIncorrect           4368                       # Number of branches that were predicted taken incorrectly
system.cpu.iew.wb_consumers::0               92302551                       # num instructions consuming a value
system.cpu.iew.wb_consumers::1               91023877                       # num instructions consuming a value
system.cpu.iew.wb_consumers::total          183326428                       # num instructions consuming a value
system.cpu.iew.wb_count::0                  202929138                       # cumulative count of insts written-back
system.cpu.iew.wb_count::1                  204345493                       # cumulative count of insts written-back
system.cpu.iew.wb_count::total              407274631                       # cumulative count of insts written-back
system.cpu.iew.wb_fanout::0                  0.728079                       # average fanout of values written-back
system.cpu.iew.wb_fanout::1                  0.751918                       # average fanout of values written-back
system.cpu.iew.wb_fanout::total              0.739915                       # average fanout of values written-back
system.cpu.iew.wb_producers::0               67203505                       # num instructions producing a value
system.cpu.iew.wb_producers::1               68442471                       # num instructions producing a value
system.cpu.iew.wb_producers::total          135645976                       # num instructions producing a value
system.cpu.iew.wb_rate::0                    0.083349                       # insts written-back per cycle
system.cpu.iew.wb_rate::1                    0.083930                       # insts written-back per cycle
system.cpu.iew.wb_rate::total                0.167279                       # insts written-back per cycle
system.cpu.iew.wb_sent::0                   206356056                       # cumulative count of insts sent to commit
system.cpu.iew.wb_sent::1                   209421937                       # cumulative count of insts sent to commit
system.cpu.iew.wb_sent::total               415777993                       # cumulative count of insts sent to commit
system.cpu.int_regfile_reads                696925225                       # number of integer regfile reads
system.cpu.int_regfile_writes               150897652                       # number of integer regfile writes
system.cpu.ipc::0                            0.041069                       # IPC: Instructions Per Cycle
system.cpu.ipc::1                            0.041073                       # IPC: Instructions Per Cycle
system.cpu.ipc_total                         0.082142                       # IPC: Total IPC of All Threads
system.cpu.iq.FU_type_0::No_OpClass              5465      0.00%      0.00% # Type of FU issued
system.cpu.iq.FU_type_0::IntAlu              89719330     41.65%     41.65% # Type of FU issued
system.cpu.iq.FU_type_0::IntMult                 1111      0.00%     41.66% # Type of FU issued
system.cpu.iq.FU_type_0::IntDiv                  1678      0.00%     41.66% # Type of FU issued
system.cpu.iq.FU_type_0::FloatAdd                 651      0.00%     41.66% # Type of FU issued
system.cpu.iq.FU_type_0::FloatCmp                   0      0.00%     41.66% # Type of FU issued
system.cpu.iq.FU_type_0::FloatCvt                  32      0.00%     41.66% # Type of FU issued
system.cpu.iq.FU_type_0::FloatMult                  0      0.00%     41.66% # Type of FU issued
system.cpu.iq.FU_type_0::FloatMultAcc               0      0.00%     41.66% # Type of FU issued
system.cpu.iq.FU_type_0::FloatDiv                   0      0.00%     41.66% # Type of FU issued
system.cpu.iq.FU_type_0::FloatMisc                  0      0.00%     41.66% # Type of FU issued
system.cpu.iq.FU_type_0::FloatSqrt                  0      0.00%     41.66% # Type of FU issued
system.cpu.iq.FU_type_0::SimdAdd                  470      0.00%     41.66% # Type of FU issued
system.cpu.iq.FU_type_0::SimdAddAcc                 0      0.00%     41.66% # Type of FU issued
system.cpu.iq.FU_type_0::SimdAlu                 1209      0.00%     41.66% # Type of FU issued
system.cpu.iq.FU_type_0::SimdCmp                   20      0.00%     41.66% # Type of FU issued
system.cpu.iq.FU_type_0::SimdCvt                 1109      0.00%     41.66% # Type of FU issued
system.cpu.iq.FU_type_0::SimdMisc                1123      0.00%     41.66% # Type of FU issued
system.cpu.iq.FU_type_0::SimdMult                   0      0.00%     41.66% # Type of FU issued
system.cpu.iq.FU_type_0::SimdMultAcc                0      0.00%     41.66% # Type of FU issued
system.cpu.iq.FU_type_0::SimdShift                109      0.00%     41.66% # Type of FU issued
system.cpu.iq.FU_type_0::SimdShiftAcc               0      0.00%     41.66% # Type of FU issued
system.cpu.iq.FU_type_0::SimdDiv                    0      0.00%     41.66% # Type of FU issued
system.cpu.iq.FU_type_0::SimdSqrt                   0      0.00%     41.66% # Type of FU issued
system.cpu.iq.FU_type_0::SimdFloatAdd               0      0.00%     41.66% # Type of FU issued
system.cpu.iq.FU_type_0::SimdFloatAlu               0      0.00%     41.66% # Type of FU issued
system.cpu.iq.FU_type_0::SimdFloatCmp               0      0.00%     41.66% # Type of FU issued
system.cpu.iq.FU_type_0::SimdFloatCvt               0      0.00%     41.66% # Type of FU issued
system.cpu.iq.FU_type_0::SimdFloatDiv               0      0.00%     41.66% # Type of FU issued
system.cpu.iq.FU_type_0::SimdFloatMisc              0      0.00%     41.66% # Type of FU issued
system.cpu.iq.FU_type_0::SimdFloatMult              0      0.00%     41.66% # Type of FU issued
system.cpu.iq.FU_type_0::SimdFloatMultAcc            0      0.00%     41.66% # Type of FU issued
system.cpu.iq.FU_type_0::SimdFloatSqrt              0      0.00%     41.66% # Type of FU issued
system.cpu.iq.FU_type_0::SimdReduceAdd              0      0.00%     41.66% # Type of FU issued
system.cpu.iq.FU_type_0::SimdReduceAlu              0      0.00%     41.66% # Type of FU issued
system.cpu.iq.FU_type_0::SimdReduceCmp              0      0.00%     41.66% # Type of FU issued
system.cpu.iq.FU_type_0::SimdFloatReduceAdd            0      0.00%     41.66% # Type of FU issued
system.cpu.iq.FU_type_0::SimdFloatReduceCmp            0      0.00%     41.66% # Type of FU issued
system.cpu.iq.FU_type_0::SimdAes                    0      0.00%     41.66% # Type of FU issued
system.cpu.iq.FU_type_0::SimdAesMix                 0      0.00%     41.66% # Type of FU issued
system.cpu.iq.FU_type_0::SimdSha1Hash               0      0.00%     41.66% # Type of FU issued
system.cpu.iq.FU_type_0::SimdSha1Hash2              0      0.00%     41.66% # Type of FU issued
system.cpu.iq.FU_type_0::SimdSha256Hash             0      0.00%     41.66% # Type of FU issued
system.cpu.iq.FU_type_0::SimdSha256Hash2            0      0.00%     41.66% # Type of FU issued
system.cpu.iq.FU_type_0::SimdShaSigma2              0      0.00%     41.66% # Type of FU issued
system.cpu.iq.FU_type_0::SimdShaSigma3              0      0.00%     41.66% # Type of FU issued
system.cpu.iq.FU_type_0::SimdPredAlu                0      0.00%     41.66% # Type of FU issued
system.cpu.iq.FU_type_0::MemRead                84029      0.04%     41.70% # Type of FU issued
system.cpu.iq.FU_type_0::MemWrite               97640      0.05%     41.74% # Type of FU issued
system.cpu.iq.FU_type_0::FloatMemRead            2079      0.00%     41.74% # Type of FU issued
system.cpu.iq.FU_type_0::FloatMemWrite      125485668     58.26%    100.00% # Type of FU issued
system.cpu.iq.FU_type_0::IprAccess                  0      0.00%    100.00% # Type of FU issued
system.cpu.iq.FU_type_0::InstPrefetch               0      0.00%    100.00% # Type of FU issued
system.cpu.iq.FU_type_0::total              215401723                       # Type of FU issued
system.cpu.iq.FU_type_1::No_OpClass              6313      0.00%      0.00% # Type of FU issued
system.cpu.iq.FU_type_1::IntAlu              91136332     40.84%     40.84% # Type of FU issued
system.cpu.iq.FU_type_1::IntMult                 1118      0.00%     40.84% # Type of FU issued
system.cpu.iq.FU_type_1::IntDiv                  1704      0.00%     40.84% # Type of FU issued
system.cpu.iq.FU_type_1::FloatAdd                 721      0.00%     40.85% # Type of FU issued
system.cpu.iq.FU_type_1::FloatCmp                   0      0.00%     40.85% # Type of FU issued
system.cpu.iq.FU_type_1::FloatCvt                  32      0.00%     40.85% # Type of FU issued
system.cpu.iq.FU_type_1::FloatMult                  0      0.00%     40.85% # Type of FU issued
system.cpu.iq.FU_type_1::FloatMultAcc               0      0.00%     40.85% # Type of FU issued
system.cpu.iq.FU_type_1::FloatDiv                   0      0.00%     40.85% # Type of FU issued
system.cpu.iq.FU_type_1::FloatMisc                  0      0.00%     40.85% # Type of FU issued
system.cpu.iq.FU_type_1::FloatSqrt                  0      0.00%     40.85% # Type of FU issued
system.cpu.iq.FU_type_1::SimdAdd                  512      0.00%     40.85% # Type of FU issued
system.cpu.iq.FU_type_1::SimdAddAcc                 0      0.00%     40.85% # Type of FU issued
system.cpu.iq.FU_type_1::SimdAlu                 1505      0.00%     40.85% # Type of FU issued
system.cpu.iq.FU_type_1::SimdCmp                   20      0.00%     40.85% # Type of FU issued
system.cpu.iq.FU_type_1::SimdCvt                 1287      0.00%     40.85% # Type of FU issued
system.cpu.iq.FU_type_1::SimdMisc                1165      0.00%     40.85% # Type of FU issued
system.cpu.iq.FU_type_1::SimdMult                   0      0.00%     40.85% # Type of FU issued
system.cpu.iq.FU_type_1::SimdMultAcc                0      0.00%     40.85% # Type of FU issued
system.cpu.iq.FU_type_1::SimdShift                122      0.00%     40.85% # Type of FU issued
system.cpu.iq.FU_type_1::SimdShiftAcc               0      0.00%     40.85% # Type of FU issued
system.cpu.iq.FU_type_1::SimdDiv                    0      0.00%     40.85% # Type of FU issued
system.cpu.iq.FU_type_1::SimdSqrt                   0      0.00%     40.85% # Type of FU issued
system.cpu.iq.FU_type_1::SimdFloatAdd               0      0.00%     40.85% # Type of FU issued
system.cpu.iq.FU_type_1::SimdFloatAlu               0      0.00%     40.85% # Type of FU issued
system.cpu.iq.FU_type_1::SimdFloatCmp               0      0.00%     40.85% # Type of FU issued
system.cpu.iq.FU_type_1::SimdFloatCvt               0      0.00%     40.85% # Type of FU issued
system.cpu.iq.FU_type_1::SimdFloatDiv               0      0.00%     40.85% # Type of FU issued
system.cpu.iq.FU_type_1::SimdFloatMisc              0      0.00%     40.85% # Type of FU issued
system.cpu.iq.FU_type_1::SimdFloatMult              0      0.00%     40.85% # Type of FU issued
system.cpu.iq.FU_type_1::SimdFloatMultAcc            0      0.00%     40.85% # Type of FU issued
system.cpu.iq.FU_type_1::SimdFloatSqrt              0      0.00%     40.85% # Type of FU issued
system.cpu.iq.FU_type_1::SimdReduceAdd              0      0.00%     40.85% # Type of FU issued
system.cpu.iq.FU_type_1::SimdReduceAlu              0      0.00%     40.85% # Type of FU issued
system.cpu.iq.FU_type_1::SimdReduceCmp              0      0.00%     40.85% # Type of FU issued
system.cpu.iq.FU_type_1::SimdFloatReduceAdd            0      0.00%     40.85% # Type of FU issued
system.cpu.iq.FU_type_1::SimdFloatReduceCmp            0      0.00%     40.85% # Type of FU issued
system.cpu.iq.FU_type_1::SimdAes                    0      0.00%     40.85% # Type of FU issued
system.cpu.iq.FU_type_1::SimdAesMix                 0      0.00%     40.85% # Type of FU issued
system.cpu.iq.FU_type_1::SimdSha1Hash               0      0.00%     40.85% # Type of FU issued
system.cpu.iq.FU_type_1::SimdSha1Hash2              0      0.00%     40.85% # Type of FU issued
system.cpu.iq.FU_type_1::SimdSha256Hash             0      0.00%     40.85% # Type of FU issued
system.cpu.iq.FU_type_1::SimdSha256Hash2            0      0.00%     40.85% # Type of FU issued
system.cpu.iq.FU_type_1::SimdShaSigma2              0      0.00%     40.85% # Type of FU issued
system.cpu.iq.FU_type_1::SimdShaSigma3              0      0.00%     40.85% # Type of FU issued
system.cpu.iq.FU_type_1::SimdPredAlu                0      0.00%     40.85% # Type of FU issued
system.cpu.iq.FU_type_1::MemRead                91452      0.04%     40.89% # Type of FU issued
system.cpu.iq.FU_type_1::MemWrite               98738      0.04%     40.93% # Type of FU issued
system.cpu.iq.FU_type_1::FloatMemRead            2486      0.00%     40.93% # Type of FU issued
system.cpu.iq.FU_type_1::FloatMemWrite      131806301     59.07%    100.00% # Type of FU issued
system.cpu.iq.FU_type_1::IprAccess                  0      0.00%    100.00% # Type of FU issued
system.cpu.iq.FU_type_1::InstPrefetch               0      0.00%    100.00% # Type of FU issued
system.cpu.iq.FU_type_1::total              223149808                       # Type of FU issued
system.cpu.iq.FU_type::total                438551531      0.00%      0.00% # Type of FU issued
system.cpu.iq.fp_alu_accesses               257317652                       # Number of floating point alu accesses
system.cpu.iq.fp_inst_queue_reads           518099514                       # Number of floating instruction queue reads
system.cpu.iq.fp_inst_queue_wakeup_accesses    226078487                       # Number of floating instruction queue wakeup accesses
system.cpu.iq.fp_inst_queue_writes          250131210                       # Number of floating instruction queue writes
system.cpu.iq.fu_busy_cnt::0                 16178122                       # FU busy when requested
system.cpu.iq.fu_busy_cnt::1                 23802226                       # FU busy when requested
system.cpu.iq.fu_busy_cnt::total             39980348                       # FU busy when requested
system.cpu.iq.fu_busy_rate::0                0.036890                       # FU busy rate (busy events/executed inst)
system.cpu.iq.fu_busy_rate::1                0.054275                       # FU busy rate (busy events/executed inst)
system.cpu.iq.fu_busy_rate::total            0.091165                       # FU busy rate (busy events/executed inst)
system.cpu.iq.fu_full::No_OpClass                   0      0.00%      0.00% # attempts to use FU when none available
system.cpu.iq.fu_full::IntAlu                39684210     99.26%     99.26% # attempts to use FU when none available
system.cpu.iq.fu_full::IntMult                     39      0.00%     99.26% # attempts to use FU when none available
system.cpu.iq.fu_full::IntDiv                    9065      0.02%     99.28% # attempts to use FU when none available
system.cpu.iq.fu_full::FloatAdd                   990      0.00%     99.28% # attempts to use FU when none available
system.cpu.iq.fu_full::FloatCmp                     0      0.00%     99.28% # attempts to use FU when none available
system.cpu.iq.fu_full::FloatCvt                    24      0.00%     99.28% # attempts to use FU when none available
system.cpu.iq.fu_full::FloatMult                    0      0.00%     99.28% # attempts to use FU when none available
system.cpu.iq.fu_full::FloatMultAcc                 0      0.00%     99.28% # attempts to use FU when none available
system.cpu.iq.fu_full::FloatDiv                     0      0.00%     99.28% # attempts to use FU when none available
system.cpu.iq.fu_full::FloatMisc                    0      0.00%     99.28% # attempts to use FU when none available
system.cpu.iq.fu_full::FloatSqrt                    0      0.00%     99.28% # attempts to use FU when none available
system.cpu.iq.fu_full::SimdAdd                    699      0.00%     99.29% # attempts to use FU when none available
system.cpu.iq.fu_full::SimdAddAcc                   0      0.00%     99.29% # attempts to use FU when none available
system.cpu.iq.fu_full::SimdAlu                   1196      0.00%     99.29% # attempts to use FU when none available
system.cpu.iq.fu_full::SimdCmp                     26      0.00%     99.29% # attempts to use FU when none available
system.cpu.iq.fu_full::SimdCvt                   1290      0.00%     99.29% # attempts to use FU when none available
system.cpu.iq.fu_full::SimdMisc                  1487      0.00%     99.30% # attempts to use FU when none available
system.cpu.iq.fu_full::SimdMult                     0      0.00%     99.30% # attempts to use FU when none available
system.cpu.iq.fu_full::SimdMultAcc                  0      0.00%     99.30% # attempts to use FU when none available
system.cpu.iq.fu_full::SimdShift                  174      0.00%     99.30% # attempts to use FU when none available
system.cpu.iq.fu_full::SimdShiftAcc                 0      0.00%     99.30% # attempts to use FU when none available
system.cpu.iq.fu_full::SimdDiv                      0      0.00%     99.30% # attempts to use FU when none available
system.cpu.iq.fu_full::SimdSqrt                     0      0.00%     99.30% # attempts to use FU when none available
system.cpu.iq.fu_full::SimdFloatAdd                 0      0.00%     99.30% # attempts to use FU when none available
system.cpu.iq.fu_full::SimdFloatAlu                 0      0.00%     99.30% # attempts to use FU when none available
system.cpu.iq.fu_full::SimdFloatCmp                 0      0.00%     99.30% # attempts to use FU when none available
system.cpu.iq.fu_full::SimdFloatCvt                 0      0.00%     99.30% # attempts to use FU when none available
system.cpu.iq.fu_full::SimdFloatDiv                 0      0.00%     99.30% # attempts to use FU when none available
system.cpu.iq.fu_full::SimdFloatMisc                0      0.00%     99.30% # attempts to use FU when none available
system.cpu.iq.fu_full::SimdFloatMult                0      0.00%     99.30% # attempts to use FU when none available
system.cpu.iq.fu_full::SimdFloatMultAcc             0      0.00%     99.30% # attempts to use FU when none available
system.cpu.iq.fu_full::SimdFloatSqrt                0      0.00%     99.30% # attempts to use FU when none available
system.cpu.iq.fu_full::SimdReduceAdd                0      0.00%     99.30% # attempts to use FU when none available
system.cpu.iq.fu_full::SimdReduceAlu                0      0.00%     99.30% # attempts to use FU when none available
system.cpu.iq.fu_full::SimdReduceCmp                0      0.00%     99.30% # attempts to use FU when none available
system.cpu.iq.fu_full::SimdFloatReduceAdd            0      0.00%     99.30% # attempts to use FU when none available
system.cpu.iq.fu_full::SimdFloatReduceCmp            0      0.00%     99.30% # attempts to use FU when none available
system.cpu.iq.fu_full::SimdAes                      0      0.00%     99.30% # attempts to use FU when none available
system.cpu.iq.fu_full::SimdAesMix                   0      0.00%     99.30% # attempts to use FU when none available
system.cpu.iq.fu_full::SimdSha1Hash                 0      0.00%     99.30% # attempts to use FU when none available
system.cpu.iq.fu_full::SimdSha1Hash2                0      0.00%     99.30% # attempts to use FU when none available
system.cpu.iq.fu_full::SimdSha256Hash               0      0.00%     99.30% # attempts to use FU when none available
system.cpu.iq.fu_full::SimdSha256Hash2              0      0.00%     99.30% # attempts to use FU when none available
system.cpu.iq.fu_full::SimdShaSigma2                0      0.00%     99.30% # attempts to use FU when none available
system.cpu.iq.fu_full::SimdShaSigma3                0      0.00%     99.30% # attempts to use FU when none available
system.cpu.iq.fu_full::SimdPredAlu                  0      0.00%     99.30% # attempts to use FU when none available
system.cpu.iq.fu_full::MemRead                 153273      0.38%     99.68% # attempts to use FU when none available
system.cpu.iq.fu_full::MemWrite                127875      0.32%    100.00% # attempts to use FU when none available
system.cpu.iq.fu_full::FloatMemRead                 0      0.00%    100.00% # attempts to use FU when none available
system.cpu.iq.fu_full::FloatMemWrite                0      0.00%    100.00% # attempts to use FU when none available
system.cpu.iq.fu_full::IprAccess                    0      0.00%    100.00% # attempts to use FU when none available
system.cpu.iq.fu_full::InstPrefetch                 0      0.00%    100.00% # attempts to use FU when none available
system.cpu.iq.int_alu_accesses              238000959                       # Number of integer alu accesses
system.cpu.iq.int_inst_queue_reads         2853968944                       # Number of integer instruction queue reads
system.cpu.iq.int_inst_queue_wakeup_accesses    181196144                       # Number of integer instruction queue wakeup accesses
system.cpu.iq.int_inst_queue_writes         189161835                       # Number of integer instruction queue writes
system.cpu.iq.iqInstsAdded                  419471797                       # Number of instructions added to the IQ (excludes non-spec)
system.cpu.iq.iqInstsIssued                 438551531                       # Number of instructions issued
system.cpu.iq.iqNonSpecInstsAdded                 118                       # Number of non-speculative instructions added to the IQ
system.cpu.iq.iqSquashedInstsExamined        19820953                       # Number of squashed instructions iterated over during squash; mainly for profiling
system.cpu.iq.iqSquashedInstsIssued           3498589                       # Number of squashed instructions issued
system.cpu.iq.iqSquashedNonSpecRemoved             58                       # Number of squashed non-spec instructions that were removed
system.cpu.iq.iqSquashedOperandsExamined     48609599                       # Number of squashed operands that are examined and possibly removed from graph
system.cpu.iq.issued_per_cycle::samples    2434687950                       # Number of insts issued each cycle
system.cpu.iq.issued_per_cycle::mean         0.180126                       # Number of insts issued each cycle
system.cpu.iq.issued_per_cycle::stdev        0.577131                       # Number of insts issued each cycle
system.cpu.iq.issued_per_cycle::underflows            0      0.00%      0.00% # Number of insts issued each cycle
system.cpu.iq.issued_per_cycle::0          2134904656     87.69%     87.69% # Number of insts issued each cycle
system.cpu.iq.issued_per_cycle::1           220494385      9.06%     96.74% # Number of insts issued each cycle
system.cpu.iq.issued_per_cycle::2            42156036      1.73%     98.47% # Number of insts issued each cycle
system.cpu.iq.issued_per_cycle::3            19074924      0.78%     99.26% # Number of insts issued each cycle
system.cpu.iq.issued_per_cycle::4            14383726      0.59%     99.85% # Number of insts issued each cycle
system.cpu.iq.issued_per_cycle::5             3203231      0.13%     99.98% # Number of insts issued each cycle
system.cpu.iq.issued_per_cycle::6              382281      0.02%    100.00% # Number of insts issued each cycle
system.cpu.iq.issued_per_cycle::7               34131      0.00%    100.00% # Number of insts issued each cycle
system.cpu.iq.issued_per_cycle::8               54580      0.00%    100.00% # Number of insts issued each cycle
system.cpu.iq.issued_per_cycle::overflows            0      0.00%    100.00% # Number of insts issued each cycle
system.cpu.iq.issued_per_cycle::min_value            0                       # Number of insts issued each cycle
system.cpu.iq.issued_per_cycle::max_value            8                       # Number of insts issued each cycle
system.cpu.iq.issued_per_cycle::total      2434687950                       # Number of insts issued each cycle
system.cpu.iq.rate                           0.180125                       # Inst issue rate
system.cpu.iq.vec_alu_accesses                      0                       # Number of vector alu accesses
system.cpu.iq.vec_inst_queue_reads                  0                       # Number of vector instruction queue reads
system.cpu.iq.vec_inst_queue_wakeup_accesses            0                       # Number of vector instruction queue wakeup accesses
system.cpu.iq.vec_inst_queue_writes                 0                       # Number of vector instruction queue writes
system.cpu.memDep0.conflictingLoads              6566                       # Number of conflicting loads.
system.cpu.memDep0.conflictingStores             6385                       # Number of conflicting stores.
system.cpu.memDep0.insertedLoads                86594                       # Number of loads inserted to the mem dependence unit.
system.cpu.memDep0.insertedStores           118313670                       # Number of stores inserted to the mem dependence unit.
system.cpu.memDep1.conflictingLoads              5645                       # Number of conflicting loads.
system.cpu.memDep1.conflictingStores             3447                       # Number of conflicting stores.
system.cpu.memDep1.insertedLoads                93104                       # Number of loads inserted to the mem dependence unit.
system.cpu.memDep1.insertedStores           119967605                       # Number of stores inserted to the mem dependence unit.
system.cpu.misc_regfile_reads               317871585                       # number of misc regfile reads
system.cpu.misc_regfile_writes                     36                       # number of misc regfile writes
system.cpu.numCycles                       2434701777                       # number of cpu cycles simulated
system.cpu.numWorkItemsCompleted                    0                       # number of work items this cpu completed
system.cpu.numWorkItemsStarted                      0                       # number of work items this cpu started
system.cpu.timesIdled                             370                       # Number of times that the entire CPU went into an idle state and unscheduled itself
system.cpu.workload0.numSyscalls                   35                       # Number of system calls
system.cpu.workload1.numSyscalls                   35                       # Number of system calls
system.membus.snoop_filter.hit_multi_requests            0                       # Number of requests hitting in the snoop filter with multiple (>1) holders of the requested data.
system.membus.snoop_filter.hit_multi_snoops            0                       # Number of snoops hitting in the snoop filter with multiple (>1) holders of the requested data.
system.membus.snoop_filter.hit_single_requests     28201696                       # Number of requests hitting in the snoop filter with a single holder of the requested data.
system.membus.snoop_filter.hit_single_snoops            0                       # Number of snoops hitting in the snoop filter with a single holder of the requested data.
system.membus.snoop_filter.tot_requests      56468659                       # Total number of requests made to the snoop filter.
system.membus.snoop_filter.tot_snoops               0                       # Total number of snoops made to the snoop filter.
system.tol2bus.snoop_filter.hit_multi_requests           20                       # Number of requests hitting in the snoop filter with multiple (>1) holders of the requested data.
system.tol2bus.snoop_filter.hit_multi_snoops            0                       # Number of snoops hitting in the snoop filter with multiple (>1) holders of the requested data.
system.tol2bus.snoop_filter.hit_single_requests     28270309                       # Number of requests hitting in the snoop filter with a single holder of the requested data.
system.tol2bus.snoop_filter.hit_single_snoops          259                       # Number of snoops hitting in the snoop filter with a single holder of the requested data.
system.tol2bus.snoop_filter.tot_requests     56541238                       # Total number of requests made to the snoop filter.
system.tol2bus.snoop_filter.tot_snoops            259                       # Total number of snoops made to the snoop filter.
sim_insts                                   199990271                       # Number of instructions simulated
sim_ops                                     399650961                       # Number of ops (including micro ops) simulated
host_inst_rate                                  31018                       # Simulator instruction rate (inst/s)
host_op_rate                                    61985                       # Simulator op (including micro ops) rate (op/s)
system.clk_domain.clock                          1000                       # Clock period in ticks
system.cpu.branchPred.lookups                31671500                       # Number of BP lookups
system.cpu.branchPred.condPredicted          31567248                       # Number of conditional branches predicted
system.cpu.branchPred.condIncorrect             15858                       # Number of conditional branches incorrect
system.cpu.branchPred.BTBLookups             31380469                       # Number of BTB lookups
system.cpu.branchPred.BTBHits                31376529                       # Number of BTB hits
system.cpu.branchPred.BTBHitPct             99.987444                       # BTB Hit Percentage
system.cpu.branchPred.RASUsed                    6831                       # Number of times the RAS was used to get a target.
system.cpu.branchPred.RASIncorrect                  7                       # Number of incorrect RAS predictions.
system.cpu.branchPred.indirectLookups            2189                       # Number of indirect predictor lookups.
system.cpu.branchPred.indirectHits                514                       # Number of indirect target hits.
system.cpu.branchPred.indirectMisses             1675                       # Number of indirect misses.
system.cpu.branchPred.indirectMispredicted          409                       # Number of mispredicted indirect branches.
system.cpu.branchPred.power_state.pwrStateResidencyTicks::UNDEFINED 1217350888000                       # Cumulative time (in ticks) in various power states
system.cpu.commit.commitSquashedInsts        18767662                       # The number of squashed insts skipped by commit
system.cpu.commit.commitNonSpecStalls              60                       # The number of times commit has been forced to stall to communicate backwards
system.cpu.commit.branchMispredicts             14131                       # The number of times a branch was mispredicted
system.cpu.commit.numCommittedDist::samples   2434686776                       # Number of insts commited each cycle
system.cpu.commit.numCommittedDist::mean     0.164149                       # Number of insts commited each cycle
system.cpu.commit.numCommittedDist::stdev     0.742547                       # Number of insts commited each cycle
system.cpu.commit.numCommittedDist::underflows            0      0.00%      0.00% # Number of insts commited each cycle
system.cpu.commit.numCommittedDist::0      2242983540     92.13%     92.13% # Number of insts commited each cycle
system.cpu.commit.numCommittedDist::1       106967926      4.39%     96.52% # Number of insts commited each cycle
system.cpu.commit.numCommittedDist::2        34473641      1.42%     97.94% # Number of insts commited each cycle
system.cpu.commit.numCommittedDist::3        24846681      1.02%     98.96% # Number of insts commited each cycle
system.cpu.commit.numCommittedDist::4         7275804      0.30%     99.25% # Number of insts commited each cycle
system.cpu.commit.numCommittedDist::5         5152034      0.21%     99.47% # Number of insts commited each cycle
system.cpu.commit.numCommittedDist::6         3314694      0.14%     99.60% # Number of insts commited each cycle
system.cpu.commit.numCommittedDist::7         2935488      0.12%     99.72% # Number of insts commited each cycle
system.cpu.commit.numCommittedDist::8         6736968      0.28%    100.00% # Number of insts commited each cycle
system.cpu.commit.numCommittedDist::overflows            0      0.00%    100.00% # Number of insts commited each cycle
system.cpu.commit.numCommittedDist::min_value            0                       # Number of insts commited each cycle
system.cpu.commit.numCommittedDist::max_value            8                       # Number of insts commited each cycle
system.cpu.commit.numCommittedDist::total   2434686776                       # Number of insts commited each cycle
system.cpu.commit.instsCommitted::0          99990271                       # Number of instructions committed
system.cpu.commit.instsCommitted::1         100000000                       # Number of instructions committed
system.cpu.commit.instsCommitted::total     199990271                       # Number of instructions committed
system.cpu.commit.opsCommitted::0           199815752                       # Number of ops (including micro ops) committed
system.cpu.commit.opsCommitted::1           199835209                       # Number of ops (including micro ops) committed
system.cpu.commit.opsCommitted::total       399650961                       # Number of ops (including micro ops) committed
system.cpu.commit.memRefs::0                113180058                       # Number of memory references committed
system.cpu.commit.memRefs::1                113191175                       # Number of memory references committed
system.cpu.commit.memRefs::total            226371233                       # Number of memory references committed
system.cpu.commit.loads::0                      65801                       # Number of loads committed
system.cpu.commit.loads::1                      65801                       # Number of loads committed
system.cpu.commit.loads::total                 131602                       # Number of loads committed
system.cpu.commit.amos::0                           0                       # Number of atomic instructions committed
system.cpu.commit.amos::1                           0                       # Number of atomic instructions committed
system.cpu.commit.amos::total                       0                       # Number of atomic instructions committed
system.cpu.commit.membars::0                        8                       # Number of memory barriers committed
system.cpu.commit.membars::1                        8                       # Number of memory barriers committed
system.cpu.commit.membars::total                   16                       # Number of memory barriers committed
system.cpu.commit.branches::0                14428301                       # Number of branches committed
system.cpu.commit.branches::1                14429691                       # Number of branches committed
system.cpu.commit.branches::total            28857992                       # Number of branches committed
system.cpu.commit.vector::0                         0                       # Number of committed Vector instructions.
system.cpu.commit.vector::1                         0                       # Number of committed Vector instructions.
system.cpu.commit.vector::total                     0                       # Number of committed Vector instructions.
system.cpu.commit.floating::0               113025257                       # Number of committed floating point instructions.
system.cpu.commit.floating::1               113036374                       # Number of committed floating point instructions.
system.cpu.commit.floating::total           226061631                       # Number of committed floating point instructions.
system.cpu.commit.integer::0                199808001                       # Number of committed integer instructions.
system.cpu.commit.integer::1                199827458                       # Number of committed integer instructions.
system.cpu.commit.integer::total            399635459                       # Number of committed integer instructions.
system.cpu.commit.functionCalls::0               2692                       # Number of function calls committed.
system.cpu.commit.functionCalls::1               2692                       # Number of function calls committed.
system.cpu.commit.functionCalls::total           5384                       # Number of function calls committed.
system.cpu.commit.committedInstType_0::No_OpClass         4296      0.00%      0.00% # Class of committed instruction
system.cpu.commit.committedInstType_0::IntAlu     86624709     43.35%     43.35% # Class of committed instruction
system.cpu.commit.committedInstType_0::IntMult         1095      0.00%     43.35% # Class of committed instruction
system.cpu.commit.committedInstType_0::IntDiv         1666      0.00%     43.36% # Class of committed instruction
system.cpu.commit.committedInstType_0::FloatAdd          432      0.00%     43.36% # Class of committed instruction
system.cpu.commit.committedInstType_0::FloatCmp            0      0.00%     43.36% # Class of committed instruction
system.cpu.commit.committedInstType_0::FloatCvt           32      0.00%     43.36% # Class of committed instruction
system.cpu.commit.committedInstType_0::FloatMult            0      0.00%     43.36% # Class of committed instruction
system.cpu.commit.committedInstType_0::FloatMultAcc            0      0.00%     43.36% # Class of committed instruction
system.cpu.commit.committedInstType_0::FloatDiv            0      0.00%     43.36% # Class of committed instruction
system.cpu.commit.committedInstType_0::FloatMisc            0      0.00%     43.36% # Class of committed instruction
system.cpu.commit.committedInstType_0::FloatSqrt            0      0.00%     43.36% # Class of committed instruction
system.cpu.commit.committedInstType_0::SimdAdd          434      0.00%     43.36% # Class of committed instruction
system.cpu.commit.committedInstType_0::SimdAddAcc            0      0.00%     43.36% # Class of committed instruction
system.cpu.commit.committedInstType_0::SimdAlu          887      0.00%     43.36% # Class of committed instruction
system.cpu.commit.committedInstType_0::SimdCmp           20      0.00%     43.36% # Class of committed instruction
system.cpu.commit.committedInstType_0::SimdCvt          988      0.00%     43.36% # Class of committed instruction
system.cpu.commit.committedInstType_0::SimdMisc         1028      0.00%     43.36% # Class of committed instruction
system.cpu.commit.committedInstType_0::SimdMult            0      0.00%     43.36% # Class of committed instruction
system.cpu.commit.committedInstType_0::SimdMultAcc            0      0.00%     43.36% # Class of committed instruction
system.cpu.commit.committedInstType_0::SimdShift          107      0.00%     43.36% # Class of committed instruction
system.cpu.commit.committedInstType_0::SimdShiftAcc            0      0.00%     43.36% # Class of committed instruction
system.cpu.commit.committedInstType_0::SimdDiv            0      0.00%     43.36% # Class of committed instruction
system.cpu.commit.committedInstType_0::SimdSqrt            0      0.00%     43.36% # Class of committed instruction
system.cpu.commit.committedInstType_0::SimdFloatAdd            0      0.00%     43.36% # Class of committed instruction
system.cpu.commit.committedInstType_0::SimdFloatAlu            0      0.00%     43.36% # Class of committed instruction
system.cpu.commit.committedInstType_0::SimdFloatCmp            0      0.00%     43.36% # Class of committed instruction
system.cpu.commit.committedInstType_0::SimdFloatCvt            0      0.00%     43.36% # Class of committed instruction
system.cpu.commit.committedInstType_0::SimdFloatDiv            0      0.00%     43.36% # Class of committed instruction
system.cpu.commit.committedInstType_0::SimdFloatMisc            0      0.00%     43.36% # Class of committed instruction
system.cpu.commit.committedInstType_0::SimdFloatMult            0      0.00%     43.36% # Class of committed instruction
system.cpu.commit.committedInstType_0::SimdFloatMultAcc            0      0.00%     43.36% # Class of committed instruction
system.cpu.commit.committedInstType_0::SimdFloatSqrt            0      0.00%     43.36% # Class of committed instruction
system.cpu.commit.committedInstType_0::SimdReduceAdd            0      0.00%     43.36% # Class of committed instruction
system.cpu.commit.committedInstType_0::SimdReduceAlu            0      0.00%     43.36% # Class of committed instruction
system.cpu.commit.committedInstType_0::SimdReduceCmp            0      0.00%     43.36% # Class of committed instruction
system.cpu.commit.committedInstType_0::SimdFloatReduceAdd            0      0.00%     43.36% # Class of committed instruction
system.cpu.commit.committedInstType_0::SimdFloatReduceCmp            0      0.00%     43.36% # Class of committed instruction
system.cpu.commit.committedInstType_0::SimdAes            0      0.00%     43.36% # Class of committed instruction
system.cpu.commit.committedInstType_0::SimdAesMix            0      0.00%     43.36% # Class of committed instruction
system.cpu.commit.committedInstType_0::SimdSha1Hash            0      0.00%     43.36% # Class of committed instruction
system.cpu.commit.committedInstType_0::SimdSha1Hash2            0      0.00%     43.36% # Class of committed instruction
system.cpu.commit.committedInstType_0::SimdSha256Hash            0      0.00%     43.36% # Class of committed instruction
system.cpu.commit.committedInstType_0::SimdSha256Hash2            0      0.00%     43.36% # Class of committed instruction
system.cpu.commit.committedInstType_0::SimdShaSigma2            0      0.00%     43.36% # Class of committed instruction
system.cpu.commit.committedInstType_0::SimdShaSigma3            0      0.00%     43.36% # Class of committed instruction
system.cpu.commit.committedInstType_0::SimdPredAlu            0      0.00%     43.36% # Class of committed instruction
system.cpu.commit.committedInstType_0::MemRead        64619      0.03%     43.39% # Class of committed instruction
system.cpu.commit.committedInstType_0::MemWrite        94453      0.05%     43.44% # Class of committed instruction
system.cpu.commit.committedInstType_0::FloatMemRead         1182      0.00%     43.44% # Class of committed instruction
system.cpu.commit.committedInstType_0::FloatMemWrite    113019804     56.56%    100.00% # Class of committed instruction
system.cpu.commit.committedInstType_0::IprAccess            0      0.00%    100.00% # Class of committed instruction
system.cpu.commit.committedInstType_0::InstPrefetch            0      0.00%    100.00% # Class of committed instruction
system.cpu.commit.committedInstType_0::total    199815752                       # Class of committed instruction
system.cpu.commit.committedInstType_1::No_OpClass         4296      0.00%      0.00% # Class of committed instruction
system.cpu.commit.committedInstType_1::IntAlu     86633049     43.35%     43.35% # Class of committed instruction
system.cpu.commit.committedInstType_1::IntMult         1095      0.00%     43.35% # Class of committed instruction
system.cpu.commit.committedInstType_1::IntDiv         1666      0.00%     43.36% # Class of committed instruction
system.cpu.commit.committedInstType_1::FloatAdd          432      0.00%     43.36% # Class of committed instruction
system.cpu.commit.committedInstType_1::FloatCmp            0      0.00%     43.36% # Class of committed instruction
system.cpu.commit.committedInstType_1::FloatCvt           32      0.00%     43.36% # Class of committed instruction
system.cpu.commit.committedInstType_1::FloatMult            0      0.00%     43.36% # Class of committed instruction
system.cpu.commit.committedInstType_1::FloatMultAcc            0      0.00%     43.36% # Class of committed instruction
system.cpu.commit.committedInstType_1::FloatDiv            0      0.00%     43.36% # Class of committed instruction
system.cpu.commit.committedInstType_1::FloatMisc            0      0.00%     43.36% # Class of committed instruction
system.cpu.commit.committedInstType_1::FloatSqrt            0      0.00%     43.36% # Class of committed instruction
system.cpu.commit.committedInstType_1::SimdAdd          434      0.00%     43.36% # Class of committed instruction
system.cpu.commit.committedInstType_1::SimdAddAcc            0      0.00%     43.36% # Class of committed instruction
system.cpu.commit.committedInstType_1::SimdAlu          887      0.00%     43.36% # Class of committed instruction
system.cpu.commit.committedInstType_1::SimdCmp           20      0.00%     43.36% # Class of committed instruction
system.cpu.commit.committedInstType_1::SimdCvt          988      0.00%     43.36% # Class of committed instruction
system.cpu.commit.committedInstType_1::SimdMisc         1028      0.00%     43.36% # Class of committed instruction
system.cpu.commit.committedInstType_1::SimdMult            0      0.00%     43.36% # Class of committed instruction
system.cpu.commit.committedInstType_1::SimdMultAcc            0      0.00%     43.36% # Class of committed instruction
system.cpu.commit.committedInstType_1::SimdShift          107      0.00%     43.36% # Class of committed instruction
system.cpu.commit.committedInstType_1::SimdShiftAcc            0      0.00%     43.36% # Class of committed instruction
system.cpu.commit.committedInstType_1::SimdDiv            0      0.00%     43.36% # Class of committed instruction
system.cpu.commit.committedInstType_1::SimdSqrt            0      0.00%     43.36% # Class of committed instruction
system.cpu.commit.committedInstType_1::SimdFloatAdd            0      0.00%     43.36% # Class of committed instruction
system.cpu.commit.committedInstType_1::SimdFloatAlu            0      0.00%     43.36% # Class of committed instruction
system.cpu.commit.committedInstType_1::SimdFloatCmp            0      0.00%     43.36% # Class of committed instruction
system.cpu.commit.committedInstType_1::SimdFloatCvt            0      0.00%     43.36% # Class of committed instruction
system.cpu.commit.committedInstType_1::SimdFloatDiv            0      0.00%     43.36% # Class of committed instruction
system.cpu.commit.committedInstType_1::SimdFloatMisc            0      0.00%     43.36% # Class of committed instruction
system.cpu.commit.committedInstType_1::SimdFloatMult            0      0.00%     43.36% # Class of committed instruction
system.cpu.commit.committedInstType_1::SimdFloatMultAcc            0      0.00%     43.36% # Class of committed instruction
system.cpu.commit.committedInstType_1::SimdFloatSqrt            0      0.00%     43.36% # Class of committed instruction
system.cpu.commit.committedInstType_1::SimdReduceAdd            0      0.00%     43.36% # Class of committed instruction
system.cpu.commit.committedInstType_1::SimdReduceAlu            0      0.00%     43.36% # Class of committed instruction
system.cpu.commit.committedInstType_1::SimdReduceCmp            0      0.00%     43.36% # Class of committed instruction
system.cpu.commit.committedInstType_1::SimdFloatReduceAdd            0      0.00%     43.36% # Class of committed instruction
system.cpu.commit.committedInstType_1::SimdFloatReduceCmp            0      0.00%     43.36% # Class of committed instruction
system.cpu.commit.committedInstType_1::SimdAes            0      0.00%     43.36% # Class of committed instruction
system.cpu.commit.committedInstType_1::SimdAesMix            0      0.00%     43.36% # Class of committed instruction
system.cpu.commit.committedInstType_1::SimdSha1Hash            0      0.00%     43.36% # Class of committed instruction
system.cpu.commit.committedInstType_1::SimdSha1Hash2            0      0.00%     43.36% # Class of committed instruction
system.cpu.commit.committedInstType_1::SimdSha256Hash            0      0.00%     43.36% # Class of committed instruction
system.cpu.commit.committedInstType_1::SimdSha256Hash2            0      0.00%     43.36% # Class of committed instruction
system.cpu.commit.committedInstType_1::SimdShaSigma2            0      0.00%     43.36% # Class of committed instruction
system.cpu.commit.committedInstType_1::SimdShaSigma3            0      0.00%     43.36% # Class of committed instruction
system.cpu.commit.committedInstType_1::SimdPredAlu            0      0.00%     43.36% # Class of committed instruction
system.cpu.commit.committedInstType_1::MemRead        64619      0.03%     43.39% # Class of committed instruction
system.cpu.commit.committedInstType_1::MemWrite        94453      0.05%     43.44% # Class of committed instruction
system.cpu.commit.committedInstType_1::FloatMemRead         1182      0.00%     43.44% # Class of committed instruction
system.cpu.commit.committedInstType_1::FloatMemWrite    113030921     56.56%    100.00% # Class of committed instruction
system.cpu.commit.committedInstType_1::IprAccess            0      0.00%    100.00% # Class of committed instruction
system.cpu.commit.committedInstType_1::InstPrefetch            0      0.00%    100.00% # Class of committed instruction
system.cpu.commit.committedInstType_1::total    199835209                       # Class of committed instruction
system.cpu.commit.committedInstType::total    399650961      0.00%      0.00% # Class of committed instruction
system.cpu.commit.commitEligibleSamples       6736968                       # number cycles where commit BW limit reached
system.cpu.dcache.demand_hits::.cpu.data    198094592                       # number of demand (read+write) hits
system.cpu.dcache.demand_hits::total        198094592                       # number of demand (read+write) hits
system.cpu.dcache.overall_hits::.cpu.data    198094592                       # number of overall hits
system.cpu.dcache.overall_hits::total       198094592                       # number of overall hits
system.cpu.dcache.demand_misses::.cpu.data     28285008                       # number of demand (read+write) misses
system.cpu.dcache.demand_misses::total       28285008                       # number of demand (read+write) misses
system.cpu.dcache.overall_misses::.cpu.data     28285008                       # number of overall misses
system.cpu.dcache.overall_misses::total      28285008                       # number of overall misses
system.cpu.dcache.demand_miss_latency::.cpu.data 2218167642372                       # number of demand (read+write) miss cycles
system.cpu.dcache.demand_miss_latency::total 2218167642372                       # number of demand (read+write) miss cycles
system.cpu.dcache.overall_miss_latency::.cpu.data 2218167642372                       # number of overall miss cycles
system.cpu.dcache.overall_miss_latency::total 2218167642372                       # number of overall miss cycles
system.cpu.dcache.demand_accesses::.cpu.data    226379600                       # number of demand (read+write) accesses
system.cpu.dcache.demand_accesses::total    226379600                       # number of demand (read+write) accesses
system.cpu.dcache.overall_accesses::.cpu.data    226379600                       # number of overall (read+write) accesses
system.cpu.dcache.overall_accesses::total    226379600                       # number of overall (read+write) accesses
system.cpu.dcache.demand_miss_rate::.cpu.data     0.124945                       # miss rate for demand accesses
system.cpu.dcache.demand_miss_rate::total     0.124945                       # miss rate for demand accesses
system.cpu.dcache.overall_miss_rate::.cpu.data     0.124945                       # miss rate for overall accesses
system.cpu.dcache.overall_miss_rate::total     0.124945                       # miss rate for overall accesses
system.cpu.dcache.demand_avg_miss_latency::.cpu.data 78422.026339                       # average overall miss latency
system.cpu.dcache.demand_avg_miss_latency::total 78422.026339                       # average overall miss latency
system.cpu.dcache.overall_avg_miss_latency::.cpu.data 78422.026339                       # average overall miss latency
system.cpu.dcache.overall_avg_miss_latency::total 78422.026339                       # average overall miss latency
system.cpu.dcache.blocked_cycles::no_mshrs            0                       # number of cycles access was blocked
system.cpu.dcache.blocked_cycles::no_targets        66835                       # number of cycles access was blocked
system.cpu.dcache.blocked::no_mshrs                 0                       # number of cycles access was blocked
system.cpu.dcache.blocked::no_targets             792                       # number of cycles access was blocked
system.cpu.dcache.avg_blocked_cycles::no_mshrs          nan                       # average number of cycles each access was blocked
system.cpu.dcache.avg_blocked_cycles::no_targets    84.387626                       # average number of cycles each access was blocked
system.cpu.dcache.writebacks::.writebacks     28267797                       # number of writebacks
system.cpu.dcache.writebacks::total          28267797                       # number of writebacks
system.cpu.dcache.demand_mshr_hits::.cpu.data        17103                       # number of demand (read+write) MSHR hits
system.cpu.dcache.demand_mshr_hits::total        17103                       # number of demand (read+write) MSHR hits
system.cpu.dcache.overall_mshr_hits::.cpu.data        17103                       # number of overall MSHR hits
system.cpu.dcache.overall_mshr_hits::total        17103                       # number of overall MSHR hits
system.cpu.dcache.demand_mshr_misses::.cpu.data     28267905                       # number of demand (read+write) MSHR misses
system.cpu.dcache.demand_mshr_misses::total     28267905                       # number of demand (read+write) MSHR misses
system.cpu.dcache.overall_mshr_misses::.cpu.data     28267905                       # number of overall MSHR misses
system.cpu.dcache.overall_mshr_misses::total     28267905                       # number of overall MSHR misses
system.cpu.dcache.demand_mshr_miss_latency::.cpu.data 2189007211372                       # number of demand (read+write) MSHR miss cycles
system.cpu.dcache.demand_mshr_miss_latency::total 2189007211372                       # number of demand (read+write) MSHR miss cycles
system.cpu.dcache.overall_mshr_miss_latency::.cpu.data 2189007211372                       # number of overall MSHR miss cycles
system.cpu.dcache.overall_mshr_miss_latency::total 2189007211372                       # number of overall MSHR miss cycles
system.cpu.dcache.demand_mshr_miss_rate::.cpu.data     0.124869                       # mshr miss rate for demand accesses
system.cpu.dcache.demand_mshr_miss_rate::total     0.124869                       # mshr miss rate for demand accesses
system.cpu.dcache.overall_mshr_miss_rate::.cpu.data     0.124869                       # mshr miss rate for overall accesses
system.cpu.dcache.overall_mshr_miss_rate::total     0.124869                       # mshr miss rate for overall accesses
system.cpu.dcache.demand_avg_mshr_miss_latency::.cpu.data 77437.900381                       # average overall mshr miss latency
system.cpu.dcache.demand_avg_mshr_miss_latency::total 77437.900381                       # average overall mshr miss latency
system.cpu.dcache.overall_avg_mshr_miss_latency::.cpu.data 77437.900381                       # average overall mshr miss latency
system.cpu.dcache.overall_avg_mshr_miss_latency::total 77437.900381                       # average overall mshr miss latency
system.cpu.dcache.replacements                     20                       # number of replacements
system.cpu.dcache.expired                    28267777                       # dead blocks evicted
system.cpu.dcache.ReadReq_hits::.cpu.data       115612                       # number of ReadReq hits
system.cpu.dcache.ReadReq_hits::total          115612                       # number of ReadReq hits
system.cpu.dcache.ReadReq_misses::.cpu.data        24395                       # number of ReadReq misses
system.cpu.dcache.ReadReq_misses::total         24395                       # number of ReadReq misses
system.cpu.dcache.ReadReq_miss_latency::.cpu.data   1212447500                       # number of ReadReq miss cycles
system.cpu.dcache.ReadReq_miss_latency::total   1212447500                       # number of ReadReq miss cycles
system.cpu.dcache.ReadReq_accesses::.cpu.data       140007                       # number of ReadReq accesses(hits+misses)
system.cpu.dcache.ReadReq_accesses::total       140007                       # number of ReadReq accesses(hits+misses)
system.cpu.dcache.ReadReq_miss_rate::.cpu.data     0.174241                       # miss rate for ReadReq accesses
system.cpu.dcache.ReadReq_miss_rate::total     0.174241                       # miss rate for ReadReq accesses
system.cpu.dcache.ReadReq_avg_miss_latency::.cpu.data 49700.655872                       # average ReadReq miss latency
system.cpu.dcache.ReadReq_avg_miss_latency::total 49700.655872                       # average ReadReq miss latency
system.cpu.dcache.ReadReq_mshr_hits::.cpu.data        17086                       # number of ReadReq MSHR hits
system.cpu.dcache.ReadReq_mshr_hits::total        17086                       # number of ReadReq MSHR hits
system.cpu.dcache.ReadReq_mshr_misses::.cpu.data         7309                       # number of ReadReq MSHR misses
system.cpu.dcache.ReadReq_mshr_misses::total         7309                       # number of ReadReq MSHR misses
system.cpu.dcache.ReadReq_mshr_miss_latency::.cpu.data    313355000                       # number of ReadReq MSHR miss cycles
system.cpu.dcache.ReadReq_mshr_miss_latency::total    313355000                       # number of ReadReq MSHR miss cycles
system.cpu.dcache.ReadReq_mshr_miss_rate::.cpu.data     0.052205                       # mshr miss rate for ReadReq accesses
system.cpu.dcache.ReadReq_mshr_miss_rate::total     0.052205                       # mshr miss rate for ReadReq accesses
system.cpu.dcache.ReadReq_avg_mshr_miss_latency::.cpu.data 42872.485976                       # average ReadReq mshr miss latency
system.cpu.dcache.ReadReq_avg_mshr_miss_latency::total 42872.485976                       # average ReadReq mshr miss latency
system.cpu.dcache.WriteReq_hits::.cpu.data    197978980                       # number of WriteReq hits
system.cpu.dcache.WriteReq_hits::total      197978980                       # number of WriteReq hits
system.cpu.dcache.WriteReq_misses::.cpu.data     28260613                       # number of WriteReq misses
system.cpu.dcache.WriteReq_misses::total     28260613                       # number of WriteReq misses
system.cpu.dcache.WriteReq_miss_latency::.cpu.data 2216955194872                       # number of WriteReq miss cycles
system.cpu.dcache.WriteReq_miss_latency::total 2216955194872                       # number of WriteReq miss cycles
system.cpu.dcache.WriteReq_accesses::.cpu.data    226239593                       # number of WriteReq accesses(hits+misses)
system.cpu.dcache.WriteReq_accesses::total    226239593                       # number of WriteReq accesses(hits+misses)
system.cpu.dcache.WriteReq_miss_rate::.cpu.data     0.124915                       # miss rate for WriteReq accesses
system.cpu.dcache.WriteReq_miss_rate::total     0.124915                       # miss rate for WriteReq accesses
system.cpu.dcache.WriteReq_avg_miss_latency::.cpu.data 78446.819072                       # average WriteReq miss latency
system.cpu.dcache.WriteReq_avg_miss_latency::total 78446.819072                       # average WriteReq miss latency
system.cpu.dcache.WriteReq_mshr_hits::.cpu.data           17                       # number of WriteReq MSHR hits
system.cpu.dcache.WriteReq_mshr_hits::total           17                       # number of WriteReq MSHR hits
system.cpu.dcache.WriteReq_mshr_misses::.cpu.data     28260596                       # number of WriteReq MSHR misses
system.cpu.dcache.WriteReq_mshr_misses::total     28260596                       # number of WriteReq MSHR misses
system.cpu.dcache.WriteReq_mshr_miss_latency::.cpu.data 2188693856372                       # number of WriteReq MSHR miss cycles
system.cpu.dcache.WriteReq_mshr_miss_latency::total 2188693856372                       # number of WriteReq MSHR miss cycles
system.cpu.dcache.WriteReq_mshr_miss_rate::.cpu.data     0.124914                       # mshr miss rate for WriteReq accesses
system.cpu.dcache.WriteReq_mshr_miss_rate::total     0.124914                       # mshr miss rate for WriteReq accesses
system.cpu.dcache.WriteReq_avg_mshr_miss_latency::.cpu.data 77446.839988                       # average WriteReq mshr miss latency
system.cpu.dcache.WriteReq_avg_mshr_miss_latency::total 77446.839988                       # average WriteReq mshr miss latency
system.cpu.dcache.power_state.pwrStateResidencyTicks::UNDEFINED 1217350888000                       # Cumulative time (in ticks) in various power states
system.cpu.dcache.tags.tagsinuse           101.351679                       # Cycle average of tags in use
system.cpu.dcache.tags.total_refs           226362496                       # Total number of references to valid blocks.
system.cpu.dcache.tags.sampled_refs          28267904                       # Sample count of references to valid blocks.
system.cpu.dcache.tags.avg_refs              8.007757                       # Average number of references to valid blocks.
system.cpu.dcache.tags.warmup_cycle            191500                       # Cycle when the warmup percentage was hit.
system.cpu.dcache.tags.occ_blocks::.cpu.data   101.351679                       # Average occupied blocks per requestor
system.cpu.dcache.tags.occ_percent::.cpu.data     0.197952                       # Average percentage of cache occupancy
system.cpu.dcache.tags.occ_percent::total     0.197952                       # Average percentage of cache occupancy
system.cpu.dcache.tags.occ_task_id_blocks::1024          107                       # Occupied blocks per task id
system.cpu.dcache.tags.age_task_id_blocks_1024::0          107                       # Occupied blocks per task id
system.cpu.dcache.tags.occ_task_id_percent::1024     0.208984                       # Percentage of cache occupancy per task id
system.cpu.dcache.tags.tag_accesses        1839304704                       # Number of tag accesses
system.cpu.dcache.tags.data_accesses       1839304704                       # Number of data accesses
system.cpu.dcache.tags.power_state.pwrStateResidencyTicks::UNDEFINED 1217350888000                       # Cumulative time (in ticks) in various power states
system.cpu.decode.idleCycles                 42440009                       # Number of cycles decode is idle
system.cpu.decode.blockedCycles            4739629059                       # Number of cycles decode is blocked
system.cpu.decode.runCycles                   8403185                       # Number of cycles decode is running
system.cpu.decode.unblockCycles              78447582                       # Number of cycles decode is unblocking
system.cpu.decode.squashCycles                 456065                       # Number of cycles decode is squashing
system.cpu.decode.branchResolved             30044698                       # Number of times decode resolved a  branch
system.cpu.decode.branchMispred                  1926                       # Number of times decode detected a branch misprediction
system.cpu.decode.decodedInsts              422464371                       # Number of instructions handled by decode
system.cpu.decode.squashedInsts                 73636                       # Number of squashed instructions handled by decode
system.cpu.dtb.rdAccesses                      160172                       # TLB accesses on read requests
system.cpu.dtb.wrAccesses                   238273589                       # TLB accesses on write requests
system.cpu.dtb.rdMisses                          4716                       # TLB misses on read requests
system.cpu.dtb.wrMisses                      22687681                       # TLB misses on write requests
system.cpu.dtb.walker.power_state.pwrStateResidencyTicks::UNDEFINED 1217350888000                       # Cumulative time (in ticks) in various power states
system.cpu.dtb_walker_cache.blocked_cycles::no_mshrs            0                       # number of cycles access was blocked
system.cpu.dtb_walker_cache.blocked_cycles::no_targets            0                       # number of cycles access was blocked
system.cpu.dtb_walker_cache.blocked::no_mshrs            0                       # number of cycles access was blocked
system.cpu.dtb_walker_cache.blocked::no_targets            0                       # number of cycles access was blocked
system.cpu.dtb_walker_cache.avg_blocked_cycles::no_mshrs          nan                       # average number of cycles each access was blocked
system.cpu.dtb_walker_cache.avg_blocked_cycles::no_targets          nan                       # average number of cycles each access was blocked
system.cpu.dtb_walker_cache.replacements            0                       # number of replacements
system.cpu.dtb_walker_cache.expired                 0                       # dead blocks evicted
system.cpu.dtb_walker_cache.power_state.pwrStateResidencyTicks::UNDEFINED 1217350888000                       # Cumulative time (in ticks) in various power states
system.cpu.dtb_walker_cache.tags.tagsinuse            0                       # Cycle average of tags in use
system.cpu.dtb_walker_cache.tags.total_refs            0                       # Total number of references to valid blocks.
system.cpu.dtb_walker_cache.tags.sampled_refs            0                       # Sample count of references to valid blocks.
system.cpu.dtb_walker_cache.tags.avg_refs          nan                       # Average number of references to valid blocks.
system.cpu.dtb_walker_cache.tags.warmup_cycle            0                       # Cycle when the warmup percentage was hit.
system.cpu.dtb_walker_cache.tags.tag_accesses            0                       # Number of tag accesses
system.cpu.dtb_walker_cache.tags.data_accesses            0                       # Number of data accesses
system.cpu.dtb_walker_cache.tags.power_state.pwrStateResidencyTicks::UNDEFINED 1217350888000                       # Cumulative time (in ticks) in various power states
system.cpu.fetch.icacheStallCycles             275395                       # Number of cycles fetch is stalled on an Icache miss
system.cpu.fetch.insts                      220800420                       # Number of instructions fetch has processed
system.cpu.fetch.branches                    31671500                       # Number of branches that fetch encountered
system.cpu.fetch.predictedBranches           31383874                       # Number of branches that fetch has predicted taken
system.cpu.fetch.cycles                    1252842861                       # Number of cycles fetch has run and was not squashing or blocked
system.cpu.fetch.squashCycles                  457923                       # Number of cycles fetch has spent squashing
system.cpu.fetch.tlbCycles                        544                       # Number of cycles fetch has spent waiting for tlb
system.cpu.fetch.miscStallCycles                  151                       # Number of cycles fetch has spent waiting on interrupts,or bad addresses, or out of MSHRs
system.cpu.fetch.cacheLines                  94531505                       # Number of cache lines fetched
system.cpu.fetch.icacheSquashes                  2025                       # Number of outstanding Icache misses that were squashed
system.cpu.fetch.tlbSquashes                      252                       # Number of outstanding ITLB misses that were squashed
system.cpu.fetch.SMTDist::samples          2434687950                       # Number of Cycles each Thread Fetched
system.cpu.fetch.SMTDist::mean               0.002913                       # Number of Cycles each Thread Fetched
system.cpu.fetch.SMTDist::stdev              0.986669                       # Number of Cycles each Thread Fetched
system.cpu.fetch.SMTDist::underflows                0      0.00%      0.00% # Number of Cycles each Thread Fetched
system.cpu.fetch.SMTDist::-1               1181568999     48.53%     48.53% # Number of Cycles each Thread Fetched
system.cpu.fetch.SMTDist::0                  64458651      2.65%     51.18% # Number of Cycles each Thread Fetched
system.cpu.fetch.SMTDist::1                1188660300     48.82%    100.00% # Number of Cycles each Thread Fetched
system.cpu.fetch.SMTDist::2                         0      0.00%    100.00% # Number of Cycles each Thread Fetched
system.cpu.fetch.SMTDist::overflows                 0      0.00%    100.00% # Number of Cycles each Thread Fetched
system.cpu.fetch.SMTDist::min_value                -1                       # Number of Cycles each Thread Fetched
system.cpu.fetch.SMTDist::max_value                 1                       # Number of Cycles each Thread Fetched
system.cpu.fetch.SMTDist::total            2434687950                       # Number of Cycles each Thread Fetched
system.cpu.fetch.nisnDist::samples         2434687950                       # Number of instructions fetched each cycle (Total)
system.cpu.fetch.nisnDist::mean              0.181109                       # Number of instructions fetched each cycle (Total)
system.cpu.fetch.nisnDist::stdev             0.850101                       # Number of instructions fetched each cycle (Total)
system.cpu.fetch.nisnDist::underflows               0      0.00%      0.00% # Number of instructions fetched each cycle (Total)
system.cpu.fetch.nisnDist::0               2309828524     94.87%     94.87% # Number of instructions fetched each cycle (Total)
system.cpu.fetch.nisnDist::1                 16676816      0.68%     95.56% # Number of instructions fetched each cycle (Total)
system.cpu.fetch.nisnDist::2                 16460880      0.68%     96.23% # Number of instructions fetched each cycle (Total)
system.cpu.fetch.nisnDist::3                 16414778      0.67%     96.91% # Number of instructions fetched each cycle (Total)
system.cpu.fetch.nisnDist::4                 52057675      2.14%     99.05% # Number of instructions fetched each cycle (Total)
system.cpu.fetch.nisnDist::5                  6013230      0.25%     99.29% # Number of instructions fetched each cycle (Total)
system.cpu.fetch.nisnDist::6                 16987098      0.70%     99.99% # Number of instructions fetched each cycle (Total)
system.cpu.fetch.nisnDist::7                   108917      0.00%     99.99% # Number of instructions fetched each cycle (Total)
system.cpu.fetch.nisnDist::8                   140032      0.01%    100.00% # Number of instructions fetched each cycle (Total)
system.cpu.fetch.nisnDist::overflows                0      0.00%    100.00% # Number of instructions fetched each cycle (Total)
system.cpu.fetch.nisnDist::min_value                0                       # Number of instructions fetched each cycle (Total)
system.cpu.fetch.nisnDist::max_value                8                       # Number of instructions fetched each cycle (Total)
system.cpu.fetch.nisnDist::total           2434687950                       # Number of instructions fetched each cycle (Total)
system.cpu.fetch.branchRate                  0.013008                       # Number of branch fetches per cycle
system.cpu.fetch.rate                        0.090689                       # Number of inst fetches per cycle
system.cpu.icache.demand_hits::.cpu.inst     94527458                       # number of demand (read+write) hits
system.cpu.icache.demand_hits::total         94527458                       # number of demand (read+write) hits
system.cpu.icache.overall_hits::.cpu.inst     94527458                       # number of overall hits
system.cpu.icache.overall_hits::total        94527458                       # number of overall hits
system.cpu.icache.demand_misses::.cpu.inst         4046                       # number of demand (read+write) misses
system.cpu.icache.demand_misses::total           4046                       # number of demand (read+write) misses
system.cpu.icache.overall_misses::.cpu.inst         4046                       # number of overall misses
system.cpu.icache.overall_misses::total          4046                       # number of overall misses
system.cpu.icache.demand_miss_latency::.cpu.inst    238054500                       # number of demand (read+write) miss cycles
system.cpu.icache.demand_miss_latency::total    238054500                       # number of demand (read+write) miss cycles
system.cpu.icache.overall_miss_latency::.cpu.inst    238054500                       # number of overall miss cycles
system.cpu.icache.overall_miss_latency::total    238054500                       # number of overall miss cycles
system.cpu.icache.demand_accesses::.cpu.inst     94531504                       # number of demand (read+write) accesses
system.cpu.icache.demand_accesses::total     94531504                       # number of demand (read+write) accesses
[...]
system.mem_ctrls1.dram.perBankWrBursts::4       440591                       # Per bank write bursts
system.mem_ctrls1.dram.perBankWrBursts::5       440631                       # Per bank write bursts
system.mem_ctrls1.dram.perBankWrBursts::6       440550                       # Per bank write bursts
system.mem_ctrls1.dram.perBankWrBursts::7       440626                       # Per bank write bursts
system.mem_ctrls1.dram.perBankWrBursts::8       440634                       # Per bank write bursts
system.mem_ctrls1.dram.perBankWrBursts::9       440622                       # Per bank write bursts
system.mem_ctrls1.dram.perBankWrBursts::10       440647                       # Per bank write bursts
system.mem_ctrls1.dram.perBankWrBursts::11       440657                       # Per bank write bursts
system.mem_ctrls1.dram.perBankWrBursts::12       440569                       # Per bank write bursts
system.mem_ctrls1.dram.perBankWrBursts::13       440544                       # Per bank write bursts
system.mem_ctrls1.dram.perBankWrBursts::14       440564                       # Per bank write bursts
system.mem_ctrls1.dram.perBankWrBursts::15       440588                       # Per bank write bursts
system.mem_ctrls1.dram.perBankWrBursts::16       440606                       # Per bank write bursts
system.mem_ctrls1.dram.perBankWrBursts::17       440557                       # Per bank write bursts
system.mem_ctrls1.dram.perBankWrBursts::18       440573                       # Per bank write bursts
system.mem_ctrls1.dram.perBankWrBursts::19       440575                       # Per bank write bursts
system.mem_ctrls1.dram.perBankWrBursts::20       440590                       # Per bank write bursts
system.mem_ctrls1.dram.perBankWrBursts::21       440616                       # Per bank write bursts
system.mem_ctrls1.dram.perBankWrBursts::22       440642                       # Per bank write bursts
system.mem_ctrls1.dram.perBankWrBursts::23       440735                       # Per bank write bursts
system.mem_ctrls1.dram.perBankWrBursts::24       440612                       # Per bank write bursts
system.mem_ctrls1.dram.perBankWrBursts::25       440527                       # Per bank write bursts
system.mem_ctrls1.dram.perBankWrBursts::26       440527                       # Per bank write bursts
system.mem_ctrls1.dram.perBankWrBursts::27       440523                       # Per bank write bursts
system.mem_ctrls1.dram.perBankWrBursts::28       440542                       # Per bank write bursts
system.mem_ctrls1.dram.perBankWrBursts::29       440502                       # Per bank write bursts
system.mem_ctrls1.dram.perBankWrBursts::30       440521                       # Per bank write bursts
system.mem_ctrls1.dram.perBankWrBursts::31       440653                       # Per bank write bursts
system.mem_ctrls1.dram.totQLat           212836549509                       # Total ticks spent queuing
system.mem_ctrls1.dram.totBusLat          47092722040                       # Total ticks spent in databus transfers
system.mem_ctrls1.dram.totMemAccLat      460059206749                       # Total ticks spent from burst creation until serviced by the DRAM
system.mem_ctrls1.dram.avgQLat               15059.04                       # Average queueing delay per DRAM burst
system.mem_ctrls1.dram.avgBusLat              3332.00                       # Average bus latency per DRAM burst
system.mem_ctrls1.dram.avgMemAccLat          32551.04                       # Average memory access latency per DRAM burst
system.mem_ctrls1.dram.readRowHits           12686550                       # Number of row buffer hits during reads
system.mem_ctrls1.dram.writeRowHits           7511329                       # Number of row buffer hits during writes
system.mem_ctrls1.dram.readRowHitRate           89.76                       # Row buffer hit rate for reads
system.mem_ctrls1.dram.writeRowHitRate          53.28                       # Row buffer hit rate for writes
system.mem_ctrls1.dram.bytesPerActivate::samples      8034665                       # Bytes accessed per row activation
system.mem_ctrls1.dram.bytesPerActivate::mean   224.885774                       # Bytes accessed per row activation
system.mem_ctrls1.dram.bytesPerActivate::gmean   143.371738                       # Bytes accessed per row activation
system.mem_ctrls1.dram.bytesPerActivate::stdev   262.673584                       # Bytes accessed per row activation
system.mem_ctrls1.dram.bytesPerActivate::0-127      3296305     41.03%     41.03% # Bytes accessed per row activation
system.mem_ctrls1.dram.bytesPerActivate::128-255      2606695     32.44%     73.47% # Bytes accessed per row activation
system.mem_ctrls1.dram.bytesPerActivate::256-383       817582     10.18%     83.64% # Bytes accessed per row activation
system.mem_ctrls1.dram.bytesPerActivate::384-511       323558      4.03%     87.67% # Bytes accessed per row activation
system.mem_ctrls1.dram.bytesPerActivate::512-639       211222      2.63%     90.30% # Bytes accessed per row activation
system.mem_ctrls1.dram.bytesPerActivate::640-767        96752      1.20%     91.50% # Bytes accessed per row activation
system.mem_ctrls1.dram.bytesPerActivate::768-895        79369      0.99%     92.49% # Bytes accessed per row activation
system.mem_ctrls1.dram.bytesPerActivate::896-1023        74078      0.92%     93.41% # Bytes accessed per row activation
system.mem_ctrls1.dram.bytesPerActivate::1024-1151       529104      6.59%    100.00% # Bytes accessed per row activation
system.mem_ctrls1.dram.bytesPerActivate::total      8034665                       # Bytes accessed per row activation
system.mem_ctrls1.dram.bytesRead            904542080                       # Total number of bytes read from DRAM
system.mem_ctrls1.dram.bytesWritten         902340864                       # Total number of bytes written to DRAM
system.mem_ctrls1.dram.avgRdBW             743.041377                       # Average DRAM read bandwidth in MiBytes/s
system.mem_ctrls1.dram.avgWrBW             741.233175                       # Average DRAM write bandwidth in MiBytes/s
system.mem_ctrls1.dram.peakBW                19207.00                       # Theoretical peak bandwidth in MiByte/s
system.mem_ctrls1.dram.busUtil                   7.73                       # Data bus utilization in percentage
system.mem_ctrls1.dram.busUtilRead               3.87                       # Data bus utilization in percentage for reads
system.mem_ctrls1.dram.busUtilWrite              3.86                       # Data bus utilization in percentage for writes
system.mem_ctrls1.dram.pageHitRate              71.54                       # Row buffer hit rate, read and write combined
system.mem_ctrls1.dram.power_state.pwrStateResidencyTicks::UNDEFINED 1217350888000                       # Cumulative time (in ticks) in various power states
system.mem_ctrls1.dram.rank0.actEnergy   12531307711.105009                       # Energy for activate commands per rank (pJ)
system.mem_ctrls1.dram.rank0.preEnergy   16660208797.782637                       # Energy for precharge commands per rank (pJ)
system.mem_ctrls1.dram.rank0.readEnergy  29728943184.196072                       # Energy for read commands per rank (pJ)
system.mem_ctrls1.dram.rank0.writeEnergy 26496551138.405533                       # Energy for write commands per rank (pJ)
system.mem_ctrls1.dram.rank0.refreshEnergy 216609333522.877869                       # Energy for refresh commands per rank (pJ)
system.mem_ctrls1.dram.rank0.actBackEnergy 826447950003.396851                       # Energy for active background per rank (pJ)
system.mem_ctrls1.dram.rank0.preBackEnergy 159675805527.428772                       # Energy for precharge background per rank (pJ)
system.mem_ctrls1.dram.rank0.actPowerDownEnergy            0                       # Energy for active power-down per rank (pJ)
system.mem_ctrls1.dram.rank0.prePowerDownEnergy            0                       # Energy for precharge power-down per rank (pJ)
system.mem_ctrls1.dram.rank0.selfRefreshEnergy            0                       # Energy for self refresh per rank (pJ)
system.mem_ctrls1.dram.rank0.totalEnergy 1288150099885.573242                       # Total energy per rank (pJ)
system.mem_ctrls1.dram.rank0.averagePower  1058.158426                       # Core power per rank (mW)
system.mem_ctrls1.dram.rank0.totalIdleTime            0                       # Total Idle time Per DRAM Rank
system.mem_ctrls1.dram.rank0.pwrStateTime::IDLE 230963198213                       # Time in different power states
system.mem_ctrls1.dram.rank0.pwrStateTime::REF  54723900000                       # Time in different power states
system.mem_ctrls1.dram.rank0.pwrStateTime::SREF            0                       # Time in different power states
system.mem_ctrls1.dram.rank0.pwrStateTime::PRE_PDN            0                       # Time in different power states
system.mem_ctrls1.dram.rank0.pwrStateTime::ACT 931663789787                       # Time in different power states
system.mem_ctrls1.dram.rank0.pwrStateTime::ACT_PDN            0                       # Time in different power states
system.mem_ctrls1.dram.rank1.actEnergy   12526826064.481050                       # Energy for activate commands per rank (pJ)
system.mem_ctrls1.dram.rank1.preEnergy   16654250506.052860                       # Energy for precharge commands per rank (pJ)
system.mem_ctrls1.dram.rank1.readEnergy  29720909119.108341                       # Energy for read commands per rank (pJ)
system.mem_ctrls1.dram.rank1.writeEnergy 26494769611.301624                       # Energy for write commands per rank (pJ)
system.mem_ctrls1.dram.rank1.refreshEnergy 216609333522.877869                       # Energy for refresh commands per rank (pJ)
system.mem_ctrls1.dram.rank1.actBackEnergy 827077815832.251221                       # Energy for active background per rank (pJ)
system.mem_ctrls1.dram.rank1.preBackEnergy 159191840822.777954                       # Energy for precharge background per rank (pJ)
system.mem_ctrls1.dram.rank1.actPowerDownEnergy            0                       # Energy for active power-down per rank (pJ)
system.mem_ctrls1.dram.rank1.prePowerDownEnergy            0                       # Energy for precharge power-down per rank (pJ)
system.mem_ctrls1.dram.rank1.selfRefreshEnergy            0                       # Energy for self refresh per rank (pJ)
system.mem_ctrls1.dram.rank1.totalEnergy 1288275745479.201660                       # Total energy per rank (pJ)
system.mem_ctrls1.dram.rank1.averagePower  1058.261639                       # Core power per rank (mW)
system.mem_ctrls1.dram.rank1.totalIdleTime            0                       # Total Idle time Per DRAM Rank
system.mem_ctrls1.dram.rank1.pwrStateTime::IDLE 230233750703                       # Time in different power states
system.mem_ctrls1.dram.rank1.pwrStateTime::REF  54723900000                       # Time in different power states
system.mem_ctrls1.dram.rank1.pwrStateTime::SREF            0                       # Time in different power states
system.mem_ctrls1.dram.rank1.pwrStateTime::PRE_PDN            0                       # Time in different power states
system.mem_ctrls1.dram.rank1.pwrStateTime::ACT 932393237297                       # Time in different power states
system.mem_ctrls1.dram.rank1.pwrStateTime::ACT_PDN            0                       # Time in different power states
system.mem_ctrls1.power_state.pwrStateResidencyTicks::UNDEFINED 1217350888000                       # Cumulative time (in ticks) in various power states
system.membus.trans_dist::ReadResp               8819                       # Transaction distribution
system.membus.trans_dist::WritebackDirty     28198267                       # Transaction distribution
system.membus.trans_dist::CleanEvict             3429                       # Transaction distribution
system.membus.trans_dist::ReadExReq          28258144                       # Transaction distribution
system.membus.trans_dist::ReadExResp         28258144                       # Transaction distribution
system.membus.trans_dist::ReadSharedReq          8819                       # Transaction distribution
system.membus.pkt_count_system.l2.mem_side_port::system.mem_ctrls0.port     42367847                       # Packet count per connected requestor and responder (bytes)
system.membus.pkt_count_system.l2.mem_side_port::system.mem_ctrls1.port     42367775                       # Packet count per connected requestor and responder (bytes)
system.membus.pkt_count_system.l2.mem_side_port::total     84735622                       # Packet count per connected requestor and responder (bytes)
system.membus.pkt_count::total               84735622                       # Packet count per connected requestor and responder (bytes)
system.membus.pkt_size_system.l2.mem_side_port::system.mem_ctrls0.port   1806887936                       # Cumulative packet size per connected requestor and responder (bytes)
system.membus.pkt_size_system.l2.mem_side_port::system.mem_ctrls1.port   1806886784                       # Cumulative packet size per connected requestor and responder (bytes)
system.membus.pkt_size_system.l2.mem_side_port::total   3613774720                       # Cumulative packet size per connected requestor and responder (bytes)
system.membus.pkt_size::total              3613774720                       # Cumulative packet size per connected requestor and responder (bytes)
system.membus.snoops                                0                       # Total snoops (count)
system.membus.snoopTraffic                          0                       # Total snoop traffic (bytes)
system.membus.snoop_fanout::samples          28266963                       # Request fanout histogram
system.membus.snoop_fanout::mean                    0                       # Request fanout histogram
system.membus.snoop_fanout::stdev                   0                       # Request fanout histogram
system.membus.snoop_fanout::underflows              0      0.00%      0.00% # Request fanout histogram
system.membus.snoop_fanout::0                28266963    100.00%    100.00% # Request fanout histogram
system.membus.snoop_fanout::1                       0      0.00%    100.00% # Request fanout histogram
system.membus.snoop_fanout::overflows               0      0.00%    100.00% # Request fanout histogram
system.membus.snoop_fanout::min_value               0                       # Request fanout histogram
system.membus.snoop_fanout::max_value               0                       # Request fanout histogram
system.membus.snoop_fanout::total            28266963                       # Request fanout histogram
system.membus.power_state.pwrStateResidencyTicks::UNDEFINED 1217350888000                       # Cumulative time (in ticks) in various power states
system.membus.reqLayer4.occupancy         87437528507                       # Layer occupancy (ticks)
system.membus.reqLayer4.utilization               7.2                       # Layer utilization (%)
system.membus.reqLayer5.occupancy         87368503991                       # Layer occupancy (ticks)
system.membus.reqLayer5.utilization               7.2                       # Layer utilization (%)
system.membus.respLayer1.occupancy       149966552697                       # Layer occupancy (ticks)
system.membus.respLayer1.utilization             12.3                       # Layer utilization (%)
system.tol2bus.trans_dist::ReadResp             10332                       # Transaction distribution
system.tol2bus.trans_dist::WritebackDirty     56460522                       # Transaction distribution
system.tol2bus.trans_dist::WritebackClean         8055                       # Transaction distribution
system.tol2bus.trans_dist::CleanEvict            3688                       # Transaction distribution
system.tol2bus.trans_dist::HardPFReq             3655                       # Transaction distribution
system.tol2bus.trans_dist::ReadExReq         28260597                       # Transaction distribution
system.tol2bus.trans_dist::ReadExResp        28260596                       # Transaction distribution
system.tol2bus.trans_dist::ReadCleanReq          3024                       # Transaction distribution
system.tol2bus.trans_dist::ReadSharedReq         7308                       # Transaction distribution
system.tol2bus.pkt_count_system.cpu.icache.mem_side_port::system.l2.cpu_side_port         8559                       # Packet count per connected requestor and responder (bytes)
system.tol2bus.pkt_count_system.cpu.dcache.mem_side_port::system.l2.cpu_side_port     84803606                       # Packet count per connected requestor and responder (bytes)
system.tol2bus.pkt_count::total              84812165                       # Packet count per connected requestor and responder (bytes)
system.tol2bus.pkt_size_system.cpu.icache.mem_side_port::system.l2.cpu_side_port       354240                       # Cumulative packet size per connected requestor and responder (bytes)
system.tol2bus.pkt_size_system.cpu.dcache.mem_side_port::system.l2.cpu_side_port   3618284864                       # Cumulative packet size per connected requestor and responder (bytes)
system.tol2bus.pkt_size::total             3618639104                       # Cumulative packet size per connected requestor and responder (bytes)
system.tol2bus.snoops                        28205612                       # Total snoops (count)
system.tol2bus.snoopTraffic                1804689216                       # Total snoop traffic (bytes)
system.tol2bus.snoop_fanout::samples         56476540                       # Request fanout histogram
system.tol2bus.snoop_fanout::mean            0.000005                       # Request fanout histogram
system.tol2bus.snoop_fanout::stdev           0.002223                       # Request fanout histogram
system.tol2bus.snoop_fanout::underflows             0      0.00%      0.00% # Request fanout histogram
system.tol2bus.snoop_fanout::0               56476261    100.00%    100.00% # Request fanout histogram
system.tol2bus.snoop_fanout::1                    279      0.00%    100.00% # Request fanout histogram
system.tol2bus.snoop_fanout::2                      0      0.00%    100.00% # Request fanout histogram
system.tol2bus.snoop_fanout::3                      0      0.00%    100.00% # Request fanout histogram
system.tol2bus.snoop_fanout::4                      0      0.00%    100.00% # Request fanout histogram
system.tol2bus.snoop_fanout::overflows              0      0.00%    100.00% # Request fanout histogram
system.tol2bus.snoop_fanout::min_value              0                       # Request fanout histogram
system.tol2bus.snoop_fanout::max_value              1                       # Request fanout histogram
system.tol2bus.snoop_fanout::total           56476540                       # Request fanout histogram
system.tol2bus.power_state.pwrStateResidencyTicks::UNDEFINED 1217350888000                       # Cumulative time (in ticks) in various power states
system.tol2bus.reqLayer0.occupancy        56540928000                       # Layer occupancy (ticks)
system.tol2bus.reqLayer0.utilization              4.6                       # Layer utilization (%)
system.tol2bus.respLayer0.occupancy           4542487                       # Layer occupancy (ticks)
system.tol2bus.respLayer0.utilization             0.0                       # Layer utilization (%)
system.tol2bus.respLayer1.occupancy       42401856499                       # Layer occupancy (ticks)
system.tol2bus.respLayer1.utilization             3.5                       # Layer utilization (%)
system.voltage_domain.voltage                       1                       # Voltage in Volts

---------- End Simulation Statistics   ----------
