
---------- Begin Simulation Statistics ----------
final_tick                                63172090500                       # Number of ticks from beginning of simulation (restored from checkpoints and never reset)
host_mem_usage                               67536788                       # Number of bytes of host memory used
host_seconds                                   976.92                       # Real time elapsed on the host
host_tick_rate                               64664508                       # Simulator tick rate (ticks/s)
sim_freq                                 1000000000000                       # Frequency of simulated ticks
sim_seconds                                  0.063172                       # Number of seconds simulated
sim_ticks                                 63172090500                       # Number of ticks simulated
system.cpu.cc_regfile_reads                 248099140                       # number of cc regfile reads
system.cpu.cc_regfile_writes                121657176                       # number of cc regfile writes
system.cpu.committedInsts::0                 99997438                       # Number of Instructions Simulated
system.cpu.committedInsts::1                100000000                       # Number of Instructions Simulated
system.cpu.committedInsts::total            199997438                       # Number of Instructions Simulated
system.cpu.committedOps::0                  189051942                       # Number of Ops (including micro ops) Simulated
system.cpu.committedOps::1                  189056780                       # Number of Ops (including micro ops) Simulated
system.cpu.committedOps::total              378108722                       # Number of Ops (including micro ops) Simulated
system.cpu.cpi::0                            1.263474                       # CPI: Cycles Per Instruction
system.cpu.cpi::1                            1.263442                       # CPI: Cycles Per Instruction
system.cpu.cpi_total                         0.631729                       # CPI: Total CPI of All Threads
system.cpu.fp_regfile_reads                  10508027                       # number of floating regfile reads
system.cpu.fp_regfile_writes                  6068669                       # number of floating regfile writes
system.cpu.idleCycles                           63694                       # Total number of cycles that the CPU has spent unscheduled due to idling
system.cpu.iew.branchMispredicts              1794445                       # Number of branch mispredicts detected at execute
system.cpu.iew.exec_branches::0              22864724                       # Number of branches executed
system.cpu.iew.exec_branches::1              22865941                       # Number of branches executed
system.cpu.iew.exec_branches::total          45730665                       # Number of branches executed
system.cpu.iew.exec_nop::0                          0                       # number of nop insts executed
system.cpu.iew.exec_nop::1                          0                       # number of nop insts executed
system.cpu.iew.exec_nop::total                      0                       # number of nop insts executed
system.cpu.iew.exec_rate                     3.228464                       # Inst execution rate
system.cpu.iew.exec_refs::0                  41248138                       # number of memory reference insts executed
system.cpu.iew.exec_refs::1                  41249334                       # number of memory reference insts executed
system.cpu.iew.exec_refs::total              82497472                       # number of memory reference insts executed
system.cpu.iew.exec_stores::0                16607924                       # Number of stores executed
system.cpu.iew.exec_stores::1                16606216                       # Number of stores executed
system.cpu.iew.exec_stores::total            33214140                       # Number of stores executed
system.cpu.iew.exec_swp::0                          0                       # number of swp insts executed
system.cpu.iew.exec_swp::1                          0                       # number of swp insts executed
system.cpu.iew.exec_swp::total                      0                       # number of swp insts executed
system.cpu.iew.iewBlockCycles                 7515103                       # Number of cycles IEW is blocking
system.cpu.iew.iewDispLoadInsts              51388224                       # Number of dispatched load instructions
system.cpu.iew.iewDispNonSpecInsts                129                       # Number of dispatched non-speculative instructions
system.cpu.iew.iewDispSquashedInsts                 0                       # Number of squashed instructions skipped by dispatch
system.cpu.iew.iewDispStoreInsts             34472018                       # Number of dispatched store instructions
system.cpu.iew.iewDispatchedInsts           423130114                       # Number of instructions dispatched to IQ
system.cpu.iew.iewExecLoadInsts::0           24640214                       # Number of load instructions executed
system.cpu.iew.iewExecLoadInsts::1           24643118                       # Number of load instructions executed
system.cpu.iew.iewExecLoadInsts::total       49283332                       # Number of load instructions executed
system.cpu.iew.iewExecSquashedInsts           2806953                       # Number of squashed instructions skipped in execute
system.cpu.iew.iewExecutedInsts             407897696                       # Number of executed instructions
system.cpu.iew.iewIQFullEvents                 321488                       # Number of times the IQ has become full, causing a stall
system.cpu.iew.iewIdleCycles                        0                       # Number of cycles IEW is idle
system.cpu.iew.iewLSQFullEvents                650589                       # Number of times the LSQ has become full, causing a stall
system.cpu.iew.iewSquashCycles                1618107                       # Number of cycles IEW is squashing
system.cpu.iew.iewUnblockCycles               1317451                       # Number of cycles IEW is unblocking
system.cpu.iew.memOrderViolationEvents          23982                       # Number of memory order violations
system.cpu.iew.predictedNotTakenIncorrect      1377272                       # Number of branches that were predicted not taken incorrectly
system.cpu.iew.predictedTakenIncorrect         417173                       # Number of branches that were predicted taken incorrectly
system.cpu.iew.wb_consumers::0              231508688                       # num instructions consuming a value
system.cpu.iew.wb_consumers::1              231511604                       # num instructions consuming a value
system.cpu.iew.wb_consumers::total          463020292                       # num instructions consuming a value
system.cpu.iew.wb_count::0                  203617476                       # cumulative count of insts written-back
system.cpu.iew.wb_count::1                  203626124                       # cumulative count of insts written-back
system.cpu.iew.wb_count::total              407243600                       # cumulative count of insts written-back
system.cpu.iew.wb_fanout::0                  0.617927                       # average fanout of values written-back
system.cpu.iew.wb_fanout::1                  0.617919                       # average fanout of values written-back
system.cpu.iew.wb_fanout::total              0.617923                       # average fanout of values written-back
system.cpu.iew.wb_producers::0              143055550                       # num instructions producing a value
system.cpu.iew.wb_producers::1              143055484                       # num instructions producing a value
system.cpu.iew.wb_producers::total          286111034                       # num instructions producing a value
system.cpu.iew.wb_rate::0                    1.611609                       # insts written-back per cycle
system.cpu.iew.wb_rate::1                    1.611678                       # insts written-back per cycle
system.cpu.iew.wb_rate::total                3.223287                       # insts written-back per cycle
system.cpu.iew.wb_sent::0                   203716511                       # cumulative count of insts sent to commit
system.cpu.iew.wb_sent::1                   203725680                       # cumulative count of insts sent to commit
system.cpu.iew.wb_sent::total               407442191                       # cumulative count of insts sent to commit
system.cpu.int_regfile_reads                629335805                       # number of integer regfile reads
system.cpu.int_regfile_writes               324425853                       # number of integer regfile writes
system.cpu.ipc::0                            0.791468                       # IPC: Instructions Per Cycle
system.cpu.ipc::1                            0.791489                       # IPC: Instructions Per Cycle
system.cpu.ipc_total                         1.582957                       # IPC: Total IPC of All Threads
system.cpu.iq.FU_type_0::No_OpClass           1807716      0.87%      0.87% # Type of FU issued
system.cpu.iq.FU_type_0::IntAlu             157560378     76.05%     76.92% # Type of FU issued
system.cpu.iq.FU_type_0::IntMult               975783      0.47%     77.39% # Type of FU issued
system.cpu.iq.FU_type_0::IntDiv                805807      0.39%     77.78% # Type of FU issued
system.cpu.iq.FU_type_0::FloatAdd              485307      0.23%     78.01% # Type of FU issued
system.cpu.iq.FU_type_0::FloatCmp                   0      0.00%     78.01% # Type of FU issued
system.cpu.iq.FU_type_0::FloatCvt                  32      0.00%     78.01% # Type of FU issued
system.cpu.iq.FU_type_0::FloatMult                  0      0.00%     78.01% # Type of FU issued
system.cpu.iq.FU_type_0::FloatMultAcc               0      0.00%     78.01% # Type of FU issued
system.cpu.iq.FU_type_0::FloatDiv                   0      0.00%     78.01% # Type of FU issued
system.cpu.iq.FU_type_0::FloatMisc                  0      0.00%     78.01% # Type of FU issued
system.cpu.iq.FU_type_0::FloatSqrt                  0      0.00%     78.01% # Type of FU issued
system.cpu.iq.FU_type_0::SimdAdd                  458      0.00%     78.01% # Type of FU issued
system.cpu.iq.FU_type_0::SimdAddAcc                 0      0.00%     78.01% # Type of FU issued
system.cpu.iq.FU_type_0::SimdAlu                97759      0.05%     78.06% # Type of FU issued
system.cpu.iq.FU_type_0::SimdCmp                   20      0.00%     78.06% # Type of FU issued
system.cpu.iq.FU_type_0::SimdCvt               412643      0.20%     78.26% # Type of FU issued
system.cpu.iq.FU_type_0::SimdMisc             1238542      0.60%     78.86% # Type of FU issued
system.cpu.iq.FU_type_0::SimdMult                   0      0.00%     78.86% # Type of FU issued
system.cpu.iq.FU_type_0::SimdMultAcc                0      0.00%     78.86% # Type of FU issued
system.cpu.iq.FU_type_0::SimdShift                141      0.00%     78.86% # Type of FU issued
system.cpu.iq.FU_type_0::SimdShiftAcc               0      0.00%     78.86% # Type of FU issued
system.cpu.iq.FU_type_0::SimdDiv                    0      0.00%     78.86% # Type of FU issued
system.cpu.iq.FU_type_0::SimdSqrt                   0      0.00%     78.86% # Type of FU issued
system.cpu.iq.FU_type_0::SimdFloatAdd               0      0.00%     78.86% # Type of FU issued
system.cpu.iq.FU_type_0::SimdFloatAlu               0      0.00%     78.86% # Type of FU issued
system.cpu.iq.FU_type_0::SimdFloatCmp               0      0.00%     78.86% # Type of FU issued
system.cpu.iq.FU_type_0::SimdFloatCvt               4      0.00%     78.86% # Type of FU issued
system.cpu.iq.FU_type_0::SimdFloatDiv               0      0.00%     78.86% # Type of FU issued
system.cpu.iq.FU_type_0::SimdFloatMisc              0      0.00%     78.86% # Type of FU issued
system.cpu.iq.FU_type_0::SimdFloatMult              2      0.00%     78.86% # Type of FU issued
system.cpu.iq.FU_type_0::SimdFloatMultAcc            0      0.00%     78.86% # Type of FU issued
system.cpu.iq.FU_type_0::SimdFloatSqrt              0      0.00%     78.86% # Type of FU issued
system.cpu.iq.FU_type_0::SimdReduceAdd              0      0.00%     78.86% # Type of FU issued
system.cpu.iq.FU_type_0::SimdReduceAlu              0      0.00%     78.86% # Type of FU issued
system.cpu.iq.FU_type_0::SimdReduceCmp              0      0.00%     78.86% # Type of FU issued
system.cpu.iq.FU_type_0::SimdFloatReduceAdd            0      0.00%     78.86% # Type of FU issued
system.cpu.iq.FU_type_0::SimdFloatReduceCmp            0      0.00%     78.86% # Type of FU issued
system.cpu.iq.FU_type_0::SimdAes                    0      0.00%     78.86% # Type of FU issued
system.cpu.iq.FU_type_0::SimdAesMix                 0      0.00%     78.86% # Type of FU issued
system.cpu.iq.FU_type_0::SimdSha1Hash               0      0.00%     78.86% # Type of FU issued
system.cpu.iq.FU_type_0::SimdSha1Hash2              0      0.00%     78.86% # Type of FU issued
system.cpu.iq.FU_type_0::SimdSha256Hash             0      0.00%     78.86% # Type of FU issued
system.cpu.iq.FU_type_0::SimdSha256Hash2            0      0.00%     78.86% # Type of FU issued
system.cpu.iq.FU_type_0::SimdShaSigma2              0      0.00%     78.86% # Type of FU issued
system.cpu.iq.FU_type_0::SimdShaSigma3              0      0.00%     78.86% # Type of FU issued
system.cpu.iq.FU_type_0::SimdPredAlu                0      0.00%     78.86% # Type of FU issued
system.cpu.iq.FU_type_0::MemRead             25203373     12.16%     91.02% # Type of FU issued
system.cpu.iq.FU_type_0::MemWrite            15997429      7.72%     98.75% # Type of FU issued
system.cpu.iq.FU_type_0::FloatMemRead         1115985      0.54%     99.28% # Type of FU issued
system.cpu.iq.FU_type_0::FloatMemWrite        1483765      0.72%    100.00% # Type of FU issued
system.cpu.iq.FU_type_0::IprAccess                  0      0.00%    100.00% # Type of FU issued
system.cpu.iq.FU_type_0::InstPrefetch               0      0.00%    100.00% # Type of FU issued
system.cpu.iq.FU_type_0::total              207185144                       # Type of FU issued
system.cpu.iq.FU_type_1::No_OpClass           1813489      0.88%      0.88% # Type of FU issued
system.cpu.iq.FU_type_1::IntAlu             157568307     76.06%     76.94% # Type of FU issued
system.cpu.iq.FU_type_1::IntMult               975946      0.47%     77.41% # Type of FU issued
system.cpu.iq.FU_type_1::IntDiv                805741      0.39%     77.80% # Type of FU issued
system.cpu.iq.FU_type_1::FloatAdd              484989      0.23%     78.03% # Type of FU issued
system.cpu.iq.FU_type_1::FloatCmp                   0      0.00%     78.03% # Type of FU issued
system.cpu.iq.FU_type_1::FloatCvt                  32      0.00%     78.03% # Type of FU issued
system.cpu.iq.FU_type_1::FloatMult                  0      0.00%     78.03% # Type of FU issued
system.cpu.iq.FU_type_1::FloatMultAcc               0      0.00%     78.03% # Type of FU issued
system.cpu.iq.FU_type_1::FloatDiv                   0      0.00%     78.03% # Type of FU issued
system.cpu.iq.FU_type_1::FloatMisc                  0      0.00%     78.03% # Type of FU issued
system.cpu.iq.FU_type_1::FloatSqrt                  0      0.00%     78.03% # Type of FU issued
system.cpu.iq.FU_type_1::SimdAdd                  470      0.00%     78.03% # Type of FU issued
system.cpu.iq.FU_type_1::SimdAddAcc                 0      0.00%     78.03% # Type of FU issued
system.cpu.iq.FU_type_1::SimdAlu                97871      0.05%     78.08% # Type of FU issued
system.cpu.iq.FU_type_1::SimdCmp                   20      0.00%     78.08% # Type of FU issued
system.cpu.iq.FU_type_1::SimdCvt               411965      0.20%     78.28% # Type of FU issued
system.cpu.iq.FU_type_1::SimdMisc             1237368      0.60%     78.88% # Type of FU issued
system.cpu.iq.FU_type_1::SimdMult                   0      0.00%     78.88% # Type of FU issued
system.cpu.iq.FU_type_1::SimdMultAcc                0      0.00%     78.88% # Type of FU issued
system.cpu.iq.FU_type_1::SimdShift                145      0.00%     78.88% # Type of FU issued
system.cpu.iq.FU_type_1::SimdShiftAcc               0      0.00%     78.88% # Type of FU issued
system.cpu.iq.FU_type_1::SimdDiv                    0      0.00%     78.88% # Type of FU issued
system.cpu.iq.FU_type_1::SimdSqrt                   0      0.00%     78.88% # Type of FU issued
system.cpu.iq.FU_type_1::SimdFloatAdd               0      0.00%     78.88% # Type of FU issued
system.cpu.iq.FU_type_1::SimdFloatAlu               0      0.00%     78.88% # Type of FU issued
system.cpu.iq.FU_type_1::SimdFloatCmp               0      0.00%     78.88% # Type of FU issued
system.cpu.iq.FU_type_1::SimdFloatCvt               4      0.00%     78.88% # Type of FU issued
system.cpu.iq.FU_type_1::SimdFloatDiv               0      0.00%     78.88% # Type of FU issued
system.cpu.iq.FU_type_1::SimdFloatMisc              0      0.00%     78.88% # Type of FU issued
system.cpu.iq.FU_type_1::SimdFloatMult              2      0.00%     78.88% # Type of FU issued
system.cpu.iq.FU_type_1::SimdFloatMultAcc            0      0.00%     78.88% # Type of FU issued
system.cpu.iq.FU_type_1::SimdFloatSqrt              0      0.00%     78.88% # Type of FU issued
system.cpu.iq.FU_type_1::SimdReduceAdd              0      0.00%     78.88% # Type of FU issued
system.cpu.iq.FU_type_1::SimdReduceAlu              0      0.00%     78.88% # Type of FU issued
system.cpu.iq.FU_type_1::SimdReduceCmp              0      0.00%     78.88% # Type of FU issued
system.cpu.iq.FU_type_1::SimdFloatReduceAdd            0      0.00%     78.88% # Type of FU issued
system.cpu.iq.FU_type_1::SimdFloatReduceCmp            0      0.00%     78.88% # Type of FU issued
system.cpu.iq.FU_type_1::SimdAes                    0      0.00%     78.88% # Type of FU issued
system.cpu.iq.FU_type_1::SimdAesMix                 0      0.00%     78.88% # Type of FU issued
system.cpu.iq.FU_type_1::SimdSha1Hash               0      0.00%     78.88% # Type of FU issued
system.cpu.iq.FU_type_1::SimdSha1Hash2              0      0.00%     78.88% # Type of FU issued
system.cpu.iq.FU_type_1::SimdSha256Hash             0      0.00%     78.88% # Type of FU issued
system.cpu.iq.FU_type_1::SimdSha256Hash2            0      0.00%     78.88% # Type of FU issued
system.cpu.iq.FU_type_1::SimdShaSigma2              0      0.00%     78.88% # Type of FU issued
system.cpu.iq.FU_type_1::SimdShaSigma3              0      0.00%     78.88% # Type of FU issued
system.cpu.iq.FU_type_1::SimdPredAlu                0      0.00%     78.88% # Type of FU issued
system.cpu.iq.FU_type_1::MemRead             25161137     12.15%     91.02% # Type of FU issued
system.cpu.iq.FU_type_1::MemWrite            15996608      7.72%     98.75% # Type of FU issued
system.cpu.iq.FU_type_1::FloatMemRead         1115997      0.54%     99.28% # Type of FU issued
system.cpu.iq.FU_type_1::FloatMemWrite        1483705      0.72%    100.00% # Type of FU issued
system.cpu.iq.FU_type_1::IprAccess                  0      0.00%    100.00% # Type of FU issued
system.cpu.iq.FU_type_1::InstPrefetch               0      0.00%    100.00% # Type of FU issued
system.cpu.iq.FU_type_1::total              207153796                       # Type of FU issued
system.cpu.iq.FU_type::total                414338940      0.00%      0.00% # Type of FU issued
system.cpu.iq.fp_alu_accesses                10932854                       # Number of floating point alu accesses
system.cpu.iq.fp_inst_queue_reads            21203008                       # Number of floating instruction queue reads
system.cpu.iq.fp_inst_queue_wakeup_accesses      9732673                       # Number of floating instruction queue wakeup accesses
system.cpu.iq.fp_inst_queue_writes           12426745                       # Number of floating instruction queue writes
system.cpu.iq.fu_busy_cnt::0                 44601410                       # FU busy when requested
system.cpu.iq.fu_busy_cnt::1                 44625705                       # FU busy when requested
system.cpu.iq.fu_busy_cnt::total             89227115                       # FU busy when requested
system.cpu.iq.fu_busy_rate::0                0.107645                       # FU busy rate (busy events/executed inst)
system.cpu.iq.fu_busy_rate::1                0.107703                       # FU busy rate (busy events/executed inst)
system.cpu.iq.fu_busy_rate::total            0.215348                       # FU busy rate (busy events/executed inst)
system.cpu.iq.fu_full::No_OpClass                   0      0.00%      0.00% # attempts to use FU when none available
system.cpu.iq.fu_full::IntAlu                54768579     61.38%     61.38% # attempts to use FU when none available
system.cpu.iq.fu_full::IntMult                1614232      1.81%     63.19% # attempts to use FU when none available
system.cpu.iq.fu_full::IntDiv                 1835585      2.06%     65.25% # attempts to use FU when none available
system.cpu.iq.fu_full::FloatAdd                 15529      0.02%     65.26% # attempts to use FU when none available
system.cpu.iq.fu_full::FloatCmp                     0      0.00%     65.26% # attempts to use FU when none available
system.cpu.iq.fu_full::FloatCvt                     4      0.00%     65.26% # attempts to use FU when none available
system.cpu.iq.fu_full::FloatMult                    0      0.00%     65.26% # attempts to use FU when none available
system.cpu.iq.fu_full::FloatMultAcc                 0      0.00%     65.26% # attempts to use FU when none available
system.cpu.iq.fu_full::FloatDiv                     0      0.00%     65.26% # attempts to use FU when none available
system.cpu.iq.fu_full::FloatMisc                    0      0.00%     65.26% # attempts to use FU when none available
system.cpu.iq.fu_full::FloatSqrt                    0      0.00%     65.26% # attempts to use FU when none available
system.cpu.iq.fu_full::SimdAdd                    189      0.00%     65.27% # attempts to use FU when none available
system.cpu.iq.fu_full::SimdAddAcc                   0      0.00%     65.27% # attempts to use FU when none available
system.cpu.iq.fu_full::SimdAlu                   1603      0.00%     65.27% # attempts to use FU when none available
system.cpu.iq.fu_full::SimdCmp                      2      0.00%     65.27% # attempts to use FU when none available
system.cpu.iq.fu_full::SimdCvt                 174907      0.20%     65.46% # attempts to use FU when none available
system.cpu.iq.fu_full::SimdMisc                114228      0.13%     65.59% # attempts to use FU when none available
system.cpu.iq.fu_full::SimdMult                     0      0.00%     65.59% # attempts to use FU when none available
system.cpu.iq.fu_full::SimdMultAcc                  0      0.00%     65.59% # attempts to use FU when none available
system.cpu.iq.fu_full::SimdShift                   82      0.00%     65.59% # attempts to use FU when none available
system.cpu.iq.fu_full::SimdShiftAcc                 0      0.00%     65.59% # attempts to use FU when none available
system.cpu.iq.fu_full::SimdDiv                      0      0.00%     65.59% # attempts to use FU when none available
system.cpu.iq.fu_full::SimdSqrt                     0      0.00%     65.59% # attempts to use FU when none available
system.cpu.iq.fu_full::SimdFloatAdd                 0      0.00%     65.59% # attempts to use FU when none available
system.cpu.iq.fu_full::SimdFloatAlu                 0      0.00%     65.59% # attempts to use FU when none available
system.cpu.iq.fu_full::SimdFloatCmp                 0      0.00%     65.59% # attempts to use FU when none available
system.cpu.iq.fu_full::SimdFloatCvt                 0      0.00%     65.59% # attempts to use FU when none available
system.cpu.iq.fu_full::SimdFloatDiv                 0      0.00%     65.59% # attempts to use FU when none available
system.cpu.iq.fu_full::SimdFloatMisc                0      0.00%     65.59% # attempts to use FU when none available
system.cpu.iq.fu_full::SimdFloatMult                0      0.00%     65.59% # attempts to use FU when none available
system.cpu.iq.fu_full::SimdFloatMultAcc             0      0.00%     65.59% # attempts to use FU when none available
system.cpu.iq.fu_full::SimdFloatSqrt                0      0.00%     65.59% # attempts to use FU when none available
system.cpu.iq.fu_full::SimdReduceAdd                0      0.00%     65.59% # attempts to use FU when none available
system.cpu.iq.fu_full::SimdReduceAlu                0      0.00%     65.59% # attempts to use FU when none available
system.cpu.iq.fu_full::SimdReduceCmp                0      0.00%     65.59% # attempts to use FU when none available
system.cpu.iq.fu_full::SimdFloatReduceAdd            0      0.00%     65.59% # attempts to use FU when none available
system.cpu.iq.fu_full::SimdFloatReduceCmp            0      0.00%     65.59% # attempts to use FU when none available
system.cpu.iq.fu_full::SimdAes                      0      0.00%     65.59% # attempts to use FU when none available
system.cpu.iq.fu_full::SimdAesMix                   0      0.00%     65.59% # attempts to use FU when none available
system.cpu.iq.fu_full::SimdSha1Hash                 0      0.00%     65.59% # attempts to use FU when none available
system.cpu.iq.fu_full::SimdSha1Hash2                0      0.00%     65.59% # attempts to use FU when none available
system.cpu.iq.fu_full::SimdSha256Hash               0      0.00%     65.59% # attempts to use FU when none available
system.cpu.iq.fu_full::SimdSha256Hash2              0      0.00%     65.59% # attempts to use FU when none available
system.cpu.iq.fu_full::SimdShaSigma2                0      0.00%     65.59% # attempts to use FU when none available
system.cpu.iq.fu_full::SimdShaSigma3                0      0.00%     65.59% # attempts to use FU when none available
system.cpu.iq.fu_full::SimdPredAlu                  0      0.00%     65.59% # attempts to use FU when none available
system.cpu.iq.fu_full::MemRead               20785469     23.30%     88.89% # attempts to use FU when none available
system.cpu.iq.fu_full::MemWrite               9916706     11.11%    100.00% # attempts to use FU when none available
system.cpu.iq.fu_full::FloatMemRead                 0      0.00%    100.00% # attempts to use FU when none available
system.cpu.iq.fu_full::FloatMemWrite                0      0.00%    100.00% # attempts to use FU when none available
system.cpu.iq.fu_full::IprAccess                    0      0.00%    100.00% # attempts to use FU when none available
system.cpu.iq.fu_full::InstPrefetch                 0      0.00%    100.00% # attempts to use FU when none available
system.cpu.iq.int_alu_accesses              577996994                       # Number of integer alu accesses
system.cpu.iq.int_inst_queue_reads         1114298937                       # Number of integer instruction queue reads
system.cpu.iq.int_inst_queue_wakeup_accesses    397510927                       # Number of integer instruction queue wakeup accesses
system.cpu.iq.int_inst_queue_writes         455748640                       # Number of integer instruction queue writes
system.cpu.iq.iqInstsAdded                  423129811                       # Number of instructions added to the IQ (excludes non-spec)
system.cpu.iq.iqInstsIssued                 414338940                       # Number of instructions issued
system.cpu.iq.iqNonSpecInstsAdded                 303                       # Number of non-speculative instructions added to the IQ
system.cpu.iq.iqSquashedInstsExamined        45021338                       # Number of squashed instructions iterated over during squash; mainly for profiling
system.cpu.iq.iqSquashedInstsIssued           2331471                       # Number of squashed instructions issued
system.cpu.iq.iqSquashedNonSpecRemoved            171                       # Number of squashed non-spec instructions that were removed
system.cpu.iq.iqSquashedOperandsExamined     51998657                       # Number of squashed operands that are examined and possibly removed from graph
system.cpu.iq.issued_per_cycle::samples     126280488                       # Number of insts issued each cycle
system.cpu.iq.issued_per_cycle::mean         3.281100                       # Number of insts issued each cycle
system.cpu.iq.issued_per_cycle::stdev        1.981786                       # Number of insts issued each cycle
system.cpu.iq.issued_per_cycle::underflows            0      0.00%      0.00% # Number of insts issued each cycle
system.cpu.iq.issued_per_cycle::0            21518860     17.04%     17.04% # Number of insts issued each cycle
system.cpu.iq.issued_per_cycle::1             8441833      6.68%     23.73% # Number of insts issued each cycle
system.cpu.iq.issued_per_cycle::2            10750316      8.51%     32.24% # Number of insts issued each cycle
system.cpu.iq.issued_per_cycle::3            13426671     10.63%     42.87% # Number of insts issued each cycle
system.cpu.iq.issued_per_cycle::4            29368283     23.26%     66.13% # Number of insts issued each cycle
system.cpu.iq.issued_per_cycle::5            31474292     24.92%     91.05% # Number of insts issued each cycle
system.cpu.iq.issued_per_cycle::6            10076500      7.98%     99.03% # Number of insts issued each cycle
system.cpu.iq.issued_per_cycle::7              976994      0.77%     99.80% # Number of insts issued each cycle
system.cpu.iq.issued_per_cycle::8              246739      0.20%    100.00% # Number of insts issued each cycle
system.cpu.iq.issued_per_cycle::overflows            0      0.00%    100.00% # Number of insts issued each cycle
system.cpu.iq.issued_per_cycle::min_value            0                       # Number of insts issued each cycle
system.cpu.iq.issued_per_cycle::max_value            8                       # Number of insts issued each cycle
system.cpu.iq.issued_per_cycle::total       126280488                       # Number of insts issued each cycle
system.cpu.iq.rate                           3.279446                       # Inst issue rate
system.cpu.iq.vec_alu_accesses                      0                       # Number of vector alu accesses
system.cpu.iq.vec_inst_queue_reads                  0                       # Number of vector instruction queue reads
system.cpu.iq.vec_inst_queue_wakeup_accesses            0                       # Number of vector instruction queue wakeup accesses
system.cpu.iq.vec_inst_queue_writes                 0                       # Number of vector instruction queue writes
system.cpu.memDep0.conflictingLoads            466016                       # Number of conflicting loads.
system.cpu.memDep0.conflictingStores           161439                       # Number of conflicting stores.
system.cpu.memDep0.insertedLoads             25690126                       # Number of loads inserted to the mem dependence unit.
system.cpu.memDep0.insertedStores            17236783                       # Number of stores inserted to the mem dependence unit.
system.cpu.memDep1.conflictingLoads            468106                       # Number of conflicting loads.
system.cpu.memDep1.conflictingStores           166082                       # Number of conflicting stores.
system.cpu.memDep1.insertedLoads             25698098                       # Number of loads inserted to the mem dependence unit.
system.cpu.memDep1.insertedStores            17235235                       # Number of stores inserted to the mem dependence unit.
system.cpu.misc_regfile_reads               177976647                       # number of misc regfile reads
system.cpu.misc_regfile_writes                     36                       # number of misc regfile writes
system.cpu.numCycles                        126344182                       # number of cpu cycles simulated
system.cpu.numWorkItemsCompleted                    0                       # number of work items this cpu completed
system.cpu.numWorkItemsStarted                      0                       # number of work items this cpu started
system.cpu.timesIdled                            1307                       # Number of times that the entire CPU went into an idle state and unscheduled itself
system.cpu.workload0.numSyscalls                  128                       # Number of system calls
system.cpu.workload1.numSyscalls                  128                       # Number of system calls
system.membus.snoop_filter.hit_multi_requests            0                       # Number of requests hitting in the snoop filter with multiple (>1) holders of the requested data.
system.membus.snoop_filter.hit_multi_snoops            0                       # Number of snoops hitting in the snoop filter with multiple (>1) holders of the requested data.
system.membus.snoop_filter.hit_single_requests       350073                       # Number of requests hitting in the snoop filter with a single holder of the requested data.
system.membus.snoop_filter.hit_single_snoops            0                       # Number of snoops hitting in the snoop filter with a single holder of the requested data.
system.membus.snoop_filter.tot_requests        766193                       # Total number of requests made to the snoop filter.
system.membus.snoop_filter.tot_snoops               0                       # Total number of snoops made to the snoop filter.
system.tol2bus.snoop_filter.hit_multi_requests           15                       # Number of requests hitting in the snoop filter with multiple (>1) holders of the requested data.
system.tol2bus.snoop_filter.hit_multi_snoops            0                       # Number of snoops hitting in the snoop filter with multiple (>1) holders of the requested data.
system.tol2bus.snoop_filter.hit_single_requests       983733                       # Number of requests hitting in the snoop filter with a single holder of the requested data.
system.tol2bus.snoop_filter.hit_single_snoops         1049                       # Number of snoops hitting in the snoop filter with a single holder of the requested data.
system.tol2bus.snoop_filter.tot_requests      1968151                       # Total number of requests made to the snoop filter.
system.tol2bus.snoop_filter.tot_snoops           1049                       # Total number of snoops made to the snoop filter.
sim_insts                                   199997438                       # Number of instructions simulated
sim_ops                                     378108722                       # Number of ops (including micro ops) simulated
host_inst_rate                                 204722                       # Simulator instruction rate (inst/s)
host_op_rate                                   387041                       # Simulator op (including micro ops) rate (op/s)
system.clk_domain.clock                          1000                       # Clock period in ticks
system.cpu.branchPred.lookups                53001448                       # Number of BP lookups
system.cpu.branchPred.condPredicted          43516635                       # Number of conditional branches predicted
system.cpu.branchPred.condIncorrect           2129769                       # Number of conditional branches incorrect
system.cpu.branchPred.BTBLookups             19911077                       # Number of BTB lookups
system.cpu.branchPred.BTBHits                18818947                       # Number of BTB hits
system.cpu.branchPred.BTBHitPct             94.514963                       # BTB Hit Percentage
system.cpu.branchPred.RASUsed                 2205166                       # Number of times the RAS was used to get a target.
system.cpu.branchPred.RASIncorrect                 11                       # Number of incorrect RAS predictions.
system.cpu.branchPred.indirectLookups         1635778                       # Number of indirect predictor lookups.
system.cpu.branchPred.indirectHits             990473                       # Number of indirect target hits.
system.cpu.branchPred.indirectMisses           645305                       # Number of indirect misses.
system.cpu.branchPred.indirectMispredicted          562                       # Number of mispredicted indirect branches.
system.cpu.branchPred.power_state.pwrStateResidencyTicks::UNDEFINED  63172090500                       # Cumulative time (in ticks) in various power states
system.cpu.commit.commitSquashedInsts        41970005                       # The number of squashed insts skipped by commit
system.cpu.commit.commitNonSpecStalls             132                       # The number of times commit has been forced to stall to communicate backwards
system.cpu.commit.branchMispredicts           1588396                       # The number of times a branch was mispredicted
system.cpu.commit.numCommittedDist::samples    126073149                       # Number of insts commited each cycle
system.cpu.commit.numCommittedDist::mean     2.999122                       # Number of insts commited each cycle
system.cpu.commit.numCommittedDist::stdev     3.060429                       # Number of insts commited each cycle
system.cpu.commit.numCommittedDist::underflows            0      0.00%      0.00% # Number of insts commited each cycle
system.cpu.commit.numCommittedDist::0        41920743     33.25%     33.25% # Number of insts commited each cycle
system.cpu.commit.numCommittedDist::1        15977980     12.67%     45.92% # Number of insts commited each cycle
system.cpu.commit.numCommittedDist::2         9937941      7.88%     53.81% # Number of insts commited each cycle
system.cpu.commit.numCommittedDist::3        12955749     10.28%     64.08% # Number of insts commited each cycle
system.cpu.commit.numCommittedDist::4         6771915      5.37%     69.46% # Number of insts commited each cycle
system.cpu.commit.numCommittedDist::5         5966357      4.73%     74.19% # Number of insts commited each cycle
system.cpu.commit.numCommittedDist::6         5168928      4.10%     78.29% # Number of insts commited each cycle
system.cpu.commit.numCommittedDist::7         3533688      2.80%     81.09% # Number of insts commited each cycle
system.cpu.commit.numCommittedDist::8        23839848     18.91%    100.00% # Number of insts commited each cycle
system.cpu.commit.numCommittedDist::overflows            0      0.00%    100.00% # Number of insts commited each cycle
system.cpu.commit.numCommittedDist::min_value            0                       # Number of insts commited each cycle
system.cpu.commit.numCommittedDist::max_value            8                       # Number of insts commited each cycle
system.cpu.commit.numCommittedDist::total    126073149                       # Number of insts commited each cycle
system.cpu.commit.instsCommitted::0          99997438                       # Number of instructions committed
system.cpu.commit.instsCommitted::1         100000000                       # Number of instructions committed
system.cpu.commit.instsCommitted::total     199997438                       # Number of instructions committed
system.cpu.commit.opsCommitted::0           189051942                       # Number of ops (including micro ops) committed
system.cpu.commit.opsCommitted::1           189056780                       # Number of ops (including micro ops) committed
system.cpu.commit.opsCommitted::total       378108722                       # Number of ops (including micro ops) committed
system.cpu.commit.memRefs::0                 38144213                       # Number of memory references committed
system.cpu.commit.memRefs::1                 38145142                       # Number of memory references committed
system.cpu.commit.memRefs::total             76289355                       # Number of memory references committed
system.cpu.commit.loads::0                   22523847                       # Number of loads committed
system.cpu.commit.loads::1                   22524406                       # Number of loads committed
system.cpu.commit.loads::total               45048253                       # Number of loads committed
system.cpu.commit.amos::0                           0                       # Number of atomic instructions committed
system.cpu.commit.amos::1                           0                       # Number of atomic instructions committed
system.cpu.commit.amos::total                       0                       # Number of atomic instructions committed
system.cpu.commit.membars::0                       32                       # Number of memory barriers committed
system.cpu.commit.membars::1                       32                       # Number of memory barriers committed
system.cpu.commit.membars::total                   64                       # Number of memory barriers committed
system.cpu.commit.branches::0                21608184                       # Number of branches committed
system.cpu.commit.branches::1                21608762                       # Number of branches committed
system.cpu.commit.branches::total            43216946                       # Number of branches committed
system.cpu.commit.vector::0                         0                       # Number of committed Vector instructions.
system.cpu.commit.vector::1                         0                       # Number of committed Vector instructions.
system.cpu.commit.vector::total                     0                       # Number of committed Vector instructions.
system.cpu.commit.floating::0                 4315227                       # Number of committed floating point instructions.
system.cpu.commit.floating::1                 4315334                       # Number of committed floating point instructions.
system.cpu.commit.floating::total             8630561                       # Number of committed floating point instructions.
system.cpu.commit.integer::0                185699341                       # Number of committed integer instructions.
system.cpu.commit.integer::1                185704102                       # Number of committed integer instructions.
system.cpu.commit.integer::total            371403443                       # Number of committed integer instructions.
system.cpu.commit.functionCalls::0             987373                       # Number of function calls committed.
system.cpu.commit.functionCalls::1             987396                       # Number of function calls committed.
system.cpu.commit.functionCalls::total        1974769                       # Number of function calls committed.
system.cpu.commit.committedInstType_0::No_OpClass      1714763      0.91%      0.91% # Class of committed instruction
system.cpu.commit.committedInstType_0::IntAlu    145598742     77.02%     77.92% # Class of committed instruction
system.cpu.commit.committedInstType_0::IntMult       913967      0.48%     78.41% # Class of committed instruction
system.cpu.commit.committedInstType_0::IntDiv       796994      0.42%     78.83% # Class of committed instruction
system.cpu.commit.committedInstType_0::FloatAdd       431702      0.23%     79.06% # Class of committed instruction
system.cpu.commit.committedInstType_0::FloatCmp            0      0.00%     79.06% # Class of committed instruction
system.cpu.commit.committedInstType_0::FloatCvt           32      0.00%     79.06% # Class of committed instruction
system.cpu.commit.committedInstType_0::FloatMult            0      0.00%     79.06% # Class of committed instruction
system.cpu.commit.committedInstType_0::FloatMultAcc            0      0.00%     79.06% # Class of committed instruction
system.cpu.commit.committedInstType_0::FloatDiv            0      0.00%     79.06% # Class of committed instruction
system.cpu.commit.committedInstType_0::FloatMisc            0      0.00%     79.06% # Class of committed instruction
system.cpu.commit.committedInstType_0::FloatSqrt            0      0.00%     79.06% # Class of committed instruction
system.cpu.commit.committedInstType_0::SimdAdd          400      0.00%     79.06% # Class of committed instruction
system.cpu.commit.committedInstType_0::SimdAddAcc            0      0.00%     79.06% # Class of committed instruction
system.cpu.commit.committedInstType_0::SimdAlu        97178      0.05%     79.11% # Class of committed instruction
system.cpu.commit.committedInstType_0::SimdCmp           20      0.00%     79.11% # Class of committed instruction
system.cpu.commit.committedInstType_0::SimdCvt       255870      0.14%     79.24% # Class of committed instruction
system.cpu.commit.committedInstType_0::SimdMisc      1097943      0.58%     79.82% # Class of committed instruction
system.cpu.commit.committedInstType_0::SimdMult            0      0.00%     79.82% # Class of committed instruction
system.cpu.commit.committedInstType_0::SimdMultAcc            0      0.00%     79.82% # Class of committed instruction
system.cpu.commit.committedInstType_0::SimdShift          112      0.00%     79.82% # Class of committed instruction
system.cpu.commit.committedInstType_0::SimdShiftAcc            0      0.00%     79.82% # Class of committed instruction
system.cpu.commit.committedInstType_0::SimdDiv            0      0.00%     79.82% # Class of committed instruction
system.cpu.commit.committedInstType_0::SimdSqrt            0      0.00%     79.82% # Class of committed instruction
system.cpu.commit.committedInstType_0::SimdFloatAdd            0      0.00%     79.82% # Class of committed instruction
system.cpu.commit.committedInstType_0::SimdFloatAlu            0      0.00%     79.82% # Class of committed instruction
system.cpu.commit.committedInstType_0::SimdFloatCmp            0      0.00%     79.82% # Class of committed instruction
system.cpu.commit.committedInstType_0::SimdFloatCvt            4      0.00%     79.82% # Class of committed instruction
system.cpu.commit.committedInstType_0::SimdFloatDiv            0      0.00%     79.82% # Class of committed instruction
system.cpu.commit.committedInstType_0::SimdFloatMisc            0      0.00%     79.82% # Class of committed instruction
system.cpu.commit.committedInstType_0::SimdFloatMult            2      0.00%     79.82% # Class of committed instruction
system.cpu.commit.committedInstType_0::SimdFloatMultAcc            0      0.00%     79.82% # Class of committed instruction
system.cpu.commit.committedInstType_0::SimdFloatSqrt            0      0.00%     79.82% # Class of committed instruction
system.cpu.commit.committedInstType_0::SimdReduceAdd            0      0.00%     79.82% # Class of committed instruction
system.cpu.commit.committedInstType_0::SimdReduceAlu            0      0.00%     79.82% # Class of committed instruction
system.cpu.commit.committedInstType_0::SimdReduceCmp            0      0.00%     79.82% # Class of committed instruction
system.cpu.commit.committedInstType_0::SimdFloatReduceAdd            0      0.00%     79.82% # Class of committed instruction
system.cpu.commit.committedInstType_0::SimdFloatReduceCmp            0      0.00%     79.82% # Class of committed instruction
system.cpu.commit.committedInstType_0::SimdAes            0      0.00%     79.82% # Class of committed instruction
system.cpu.commit.committedInstType_0::SimdAesMix            0      0.00%     79.82% # Class of committed instruction
system.cpu.commit.committedInstType_0::SimdSha1Hash            0      0.00%     79.82% # Class of committed instruction
system.cpu.commit.committedInstType_0::SimdSha1Hash2            0      0.00%     79.82% # Class of committed instruction
system.cpu.commit.committedInstType_0::SimdSha256Hash            0      0.00%     79.82% # Class of committed instruction
system.cpu.commit.committedInstType_0::SimdSha256Hash2            0      0.00%     79.82% # Class of committed instruction
system.cpu.commit.committedInstType_0::SimdShaSigma2            0      0.00%     79.82% # Class of committed instruction
system.cpu.commit.committedInstType_0::SimdShaSigma3            0      0.00%     79.82% # Class of committed instruction
system.cpu.commit.committedInstType_0::SimdPredAlu            0      0.00%     79.82% # Class of committed instruction
system.cpu.commit.committedInstType_0::MemRead     21805840     11.53%     91.36% # Class of committed instruction
system.cpu.commit.committedInstType_0::MemWrite     14170669      7.50%     98.85% # Class of committed instruction
system.cpu.commit.committedInstType_0::FloatMemRead       718007      0.38%     99.23% # Class of committed instruction
system.cpu.commit.committedInstType_0::FloatMemWrite      1449697      0.77%    100.00% # Class of committed instruction
system.cpu.commit.committedInstType_0::IprAccess            0      0.00%    100.00% # Class of committed instruction
system.cpu.commit.committedInstType_0::InstPrefetch            0      0.00%    100.00% # Class of committed instruction
system.cpu.commit.committedInstType_0::total    189051942                       # Class of committed instruction
system.cpu.commit.committedInstType_1::No_OpClass      1714802      0.91%      0.91% # Class of committed instruction
system.cpu.commit.committedInstType_1::IntAlu    145602533     77.02%     77.92% # Class of committed instruction
system.cpu.commit.committedInstType_1::IntMult       913989      0.48%     78.41% # Class of committed instruction
system.cpu.commit.committedInstType_1::IntDiv       797005      0.42%     78.83% # Class of committed instruction
system.cpu.commit.committedInstType_1::FloatAdd       431712      0.23%     79.06% # Class of committed instruction
system.cpu.commit.committedInstType_1::FloatCmp            0      0.00%     79.06% # Class of committed instruction
system.cpu.commit.committedInstType_1::FloatCvt           32      0.00%     79.06% # Class of committed instruction
system.cpu.commit.committedInstType_1::FloatMult            0      0.00%     79.06% # Class of committed instruction
system.cpu.commit.committedInstType_1::FloatMultAcc            0      0.00%     79.06% # Class of committed instruction
system.cpu.commit.committedInstType_1::FloatDiv            0      0.00%     79.06% # Class of committed instruction
system.cpu.commit.committedInstType_1::FloatMisc            0      0.00%     79.06% # Class of committed instruction
system.cpu.commit.committedInstType_1::FloatSqrt            0      0.00%     79.06% # Class of committed instruction
system.cpu.commit.committedInstType_1::SimdAdd          400      0.00%     79.06% # Class of committed instruction
system.cpu.commit.committedInstType_1::SimdAddAcc            0      0.00%     79.06% # Class of committed instruction
system.cpu.commit.committedInstType_1::SimdAlu        97180      0.05%     79.11% # Class of committed instruction
system.cpu.commit.committedInstType_1::SimdCmp           20      0.00%     79.11% # Class of committed instruction
system.cpu.commit.committedInstType_1::SimdCvt       255878      0.14%     79.24% # Class of committed instruction
system.cpu.commit.committedInstType_1::SimdMisc      1097969      0.58%     79.82% # Class of committed instruction
system.cpu.commit.committedInstType_1::SimdMult            0      0.00%     79.82% # Class of committed instruction
system.cpu.commit.committedInstType_1::SimdMultAcc            0      0.00%     79.82% # Class of committed instruction
system.cpu.commit.committedInstType_1::SimdShift          112      0.00%     79.82% # Class of committed instruction
system.cpu.commit.committedInstType_1::SimdShiftAcc            0      0.00%     79.82% # Class of committed instruction
system.cpu.commit.committedInstType_1::SimdDiv            0      0.00%     79.82% # Class of committed instruction
system.cpu.commit.committedInstType_1::SimdSqrt            0      0.00%     79.82% # Class of committed instruction
system.cpu.commit.committedInstType_1::SimdFloatAdd            0      0.00%     79.82% # Class of committed instruction
system.cpu.commit.committedInstType_1::SimdFloatAlu            0      0.00%     79.82% # Class of committed instruction
system.cpu.commit.committedInstType_1::SimdFloatCmp            0      0.00%     79.82% # Class of committed instruction
system.cpu.commit.committedInstType_1::SimdFloatCvt            4      0.00%     79.82% # Class of committed instruction
system.cpu.commit.committedInstType_1::SimdFloatDiv            0      0.00%     79.82% # Class of committed instruction
system.cpu.commit.committedInstType_1::SimdFloatMisc            0      0.00%     79.82% # Class of committed instruction
system.cpu.commit.committedInstType_1::SimdFloatMult            2      0.00%     79.82% # Class of committed instruction
system.cpu.commit.committedInstType_1::SimdFloatMultAcc            0      0.00%     79.82% # Class of committed instruction
system.cpu.commit.committedInstType_1::SimdFloatSqrt            0      0.00%     79.82% # Class of committed instruction
system.cpu.commit.committedInstType_1::SimdReduceAdd            0      0.00%     79.82% # Class of committed instruction
system.cpu.commit.committedInstType_1::SimdReduceAlu            0      0.00%     79.82% # Class of committed instruction
system.cpu.commit.committedInstType_1::SimdReduceCmp            0      0.00%     79.82% # Class of committed instruction
system.cpu.commit.committedInstType_1::SimdFloatReduceAdd            0      0.00%     79.82% # Class of committed instruction
system.cpu.commit.committedInstType_1::SimdFloatReduceCmp            0      0.00%     79.82% # Class of committed instruction
system.cpu.commit.committedInstType_1::SimdAes            0      0.00%     79.82% # Class of committed instruction
system.cpu.commit.committedInstType_1::SimdAesMix            0      0.00%     79.82% # Class of committed instruction
system.cpu.commit.committedInstType_1::SimdSha1Hash            0      0.00%     79.82% # Class of committed instruction
system.cpu.commit.committedInstType_1::SimdSha1Hash2            0      0.00%     79.82% # Class of committed instruction
system.cpu.commit.committedInstType_1::SimdSha256Hash            0      0.00%     79.82% # Class of committed instruction
system.cpu.commit.committedInstType_1::SimdSha256Hash2            0      0.00%     79.82% # Class of committed instruction
system.cpu.commit.committedInstType_1::SimdShaSigma2            0      0.00%     79.82% # Class of committed instruction
system.cpu.commit.committedInstType_1::SimdShaSigma3            0      0.00%     79.82% # Class of committed instruction
system.cpu.commit.committedInstType_1::SimdPredAlu            0      0.00%     79.82% # Class of committed instruction
system.cpu.commit.committedInstType_1::MemRead     21806378     11.53%     91.36% # Class of committed instruction
system.cpu.commit.committedInstType_1::MemWrite     14171005      7.50%     98.85% # Class of committed instruction
system.cpu.commit.committedInstType_1::FloatMemRead       718028      0.38%     99.23% # Class of committed instruction
system.cpu.commit.committedInstType_1::FloatMemWrite      1449731      0.77%    100.00% # Class of committed instruction
system.cpu.commit.committedInstType_1::IprAccess            0      0.00%    100.00% # Class of committed instruction
system.cpu.commit.committedInstType_1::InstPrefetch            0      0.00%    100.00% # Class of committed instruction
system.cpu.commit.committedInstType_1::total    189056780                       # Class of committed instruction
system.cpu.commit.committedInstType::total    378108722      0.00%      0.00% # Class of committed instruction
system.cpu.commit.commitEligibleSamples      23839848                       # number cycles where commit BW limit reached
system.cpu.dcache.demand_hits::.cpu.data     74992548                       # number of demand (read+write) hits
system.cpu.dcache.demand_hits::total         74992548                       # number of demand (read+write) hits
system.cpu.dcache.overall_hits::.cpu.data     74992548                       # number of overall hits
system.cpu.dcache.overall_hits::total        74992548                       # number of overall hits
system.cpu.dcache.demand_misses::.cpu.data       891641                       # number of demand (read+write) misses
system.cpu.dcache.demand_misses::total         891641                       # number of demand (read+write) misses
system.cpu.dcache.overall_misses::.cpu.data       891641                       # number of overall misses
system.cpu.dcache.overall_misses::total        891641                       # number of overall misses
system.cpu.dcache.demand_miss_latency::.cpu.data  41163941780                       # number of demand (read+write) miss cycles
system.cpu.dcache.demand_miss_latency::total  41163941780                       # number of demand (read+write) miss cycles
system.cpu.dcache.overall_miss_latency::.cpu.data  41163941780                       # number of overall miss cycles
system.cpu.dcache.overall_miss_latency::total  41163941780                       # number of overall miss cycles
system.cpu.dcache.demand_accesses::.cpu.data     75884189                       # number of demand (read+write) accesses
system.cpu.dcache.demand_accesses::total     75884189                       # number of demand (read+write) accesses
system.cpu.dcache.overall_accesses::.cpu.data     75884189                       # number of overall (read+write) accesses
system.cpu.dcache.overall_accesses::total     75884189                       # number of overall (read+write) accesses
system.cpu.dcache.demand_miss_rate::.cpu.data     0.011750                       # miss rate for demand accesses
system.cpu.dcache.demand_miss_rate::total     0.011750                       # miss rate for demand accesses
system.cpu.dcache.overall_miss_rate::.cpu.data     0.011750                       # miss rate for overall accesses
system.cpu.dcache.overall_miss_rate::total     0.011750                       # miss rate for overall accesses
system.cpu.dcache.demand_avg_miss_latency::.cpu.data 46166.497256                       # average overall miss latency
system.cpu.dcache.demand_avg_miss_latency::total 46166.497256                       # average overall miss latency
system.cpu.dcache.overall_avg_miss_latency::.cpu.data 46166.497256                       # average overall miss latency
system.cpu.dcache.overall_avg_miss_latency::total 46166.497256                       # average overall miss latency
system.cpu.dcache.blocked_cycles::no_mshrs            0                       # number of cycles access was blocked
system.cpu.dcache.blocked_cycles::no_targets       256956                       # number of cycles access was blocked
system.cpu.dcache.blocked::no_mshrs                 0                       # number of cycles access was blocked
system.cpu.dcache.blocked::no_targets            7559                       # number of cycles access was blocked
system.cpu.dcache.avg_blocked_cycles::no_mshrs          nan                       # average number of cycles each access was blocked
system.cpu.dcache.avg_blocked_cycles::no_targets    33.993385                       # average number of cycles each access was blocked
system.cpu.dcache.writebacks::.writebacks       713172                       # number of writebacks
system.cpu.dcache.writebacks::total            713172                       # number of writebacks
system.cpu.dcache.demand_mshr_hits::.cpu.data       178296                       # number of demand (read+write) MSHR hits
system.cpu.dcache.demand_mshr_hits::total       178296                       # number of demand (read+write) MSHR hits
system.cpu.dcache.overall_mshr_hits::.cpu.data       178296                       # number of overall MSHR hits
system.cpu.dcache.overall_mshr_hits::total       178296                       # number of overall MSHR hits
system.cpu.dcache.demand_mshr_misses::.cpu.data       713345                       # number of demand (read+write) MSHR misses
system.cpu.dcache.demand_mshr_misses::total       713345                       # number of demand (read+write) MSHR misses
system.cpu.dcache.overall_mshr_misses::.cpu.data       713345                       # number of overall MSHR misses
system.cpu.dcache.overall_mshr_misses::total       713345                       # number of overall MSHR misses
system.cpu.dcache.demand_mshr_miss_latency::.cpu.data  35127330780                       # number of demand (read+write) MSHR miss cycles
system.cpu.dcache.demand_mshr_miss_latency::total  35127330780                       # number of demand (read+write) MSHR miss cycles
system.cpu.dcache.overall_mshr_miss_latency::.cpu.data  35127330780                       # number of overall MSHR miss cycles
system.cpu.dcache.overall_mshr_miss_latency::total  35127330780                       # number of overall MSHR miss cycles
system.cpu.dcache.demand_mshr_miss_rate::.cpu.data     0.009400                       # mshr miss rate for demand accesses
system.cpu.dcache.demand_mshr_miss_rate::total     0.009400                       # mshr miss rate for demand accesses
system.cpu.dcache.overall_mshr_miss_rate::.cpu.data     0.009400                       # mshr miss rate for overall accesses
system.cpu.dcache.overall_mshr_miss_rate::total     0.009400                       # mshr miss rate for overall accesses
system.cpu.dcache.demand_avg_mshr_miss_latency::.cpu.data 49243.116276                       # average overall mshr miss latency
system.cpu.dcache.demand_avg_mshr_miss_latency::total 49243.116276                       # average overall mshr miss latency
system.cpu.dcache.overall_avg_mshr_miss_latency::.cpu.data 49243.116276                       # average overall mshr miss latency
system.cpu.dcache.overall_avg_mshr_miss_latency::total 49243.116276                       # average overall mshr miss latency
system.cpu.dcache.replacements                  62775                       # number of replacements
system.cpu.dcache.expired                      650397                       # dead blocks evicted
system.cpu.dcache.ReadReq_hits::.cpu.data     44253546                       # number of ReadReq hits
system.cpu.dcache.ReadReq_hits::total        44253546                       # number of ReadReq hits
system.cpu.dcache.ReadReq_misses::.cpu.data       369300                       # number of ReadReq misses
system.cpu.dcache.ReadReq_misses::total        369300                       # number of ReadReq misses
system.cpu.dcache.ReadReq_miss_latency::.cpu.data  12969924000                       # number of ReadReq miss cycles
system.cpu.dcache.ReadReq_miss_latency::total  12969924000                       # number of ReadReq miss cycles
system.cpu.dcache.ReadReq_accesses::.cpu.data     44622846                       # number of ReadReq accesses(hits+misses)
system.cpu.dcache.ReadReq_accesses::total     44622846                       # number of ReadReq accesses(hits+misses)
system.cpu.dcache.ReadReq_miss_rate::.cpu.data     0.008276                       # miss rate for ReadReq accesses
system.cpu.dcache.ReadReq_miss_rate::total     0.008276                       # miss rate for ReadReq accesses
system.cpu.dcache.ReadReq_avg_miss_latency::.cpu.data 35120.292445                       # average ReadReq miss latency
system.cpu.dcache.ReadReq_avg_miss_latency::total 35120.292445                       # average ReadReq miss latency
system.cpu.dcache.ReadReq_mshr_hits::.cpu.data       156621                       # number of ReadReq MSHR hits
system.cpu.dcache.ReadReq_mshr_hits::total       156621                       # number of ReadReq MSHR hits
system.cpu.dcache.ReadReq_mshr_misses::.cpu.data       212679                       # number of ReadReq MSHR misses
system.cpu.dcache.ReadReq_mshr_misses::total       212679                       # number of ReadReq MSHR misses
system.cpu.dcache.ReadReq_mshr_miss_latency::.cpu.data   8083248500                       # number of ReadReq MSHR miss cycles
system.cpu.dcache.ReadReq_mshr_miss_latency::total   8083248500                       # number of ReadReq MSHR miss cycles
system.cpu.dcache.ReadReq_mshr_miss_rate::.cpu.data     0.004766                       # mshr miss rate for ReadReq accesses
system.cpu.dcache.ReadReq_mshr_miss_rate::total     0.004766                       # mshr miss rate for ReadReq accesses
system.cpu.dcache.ReadReq_avg_mshr_miss_latency::.cpu.data 38006.801330                       # average ReadReq mshr miss latency
system.cpu.dcache.ReadReq_avg_mshr_miss_latency::total 38006.801330                       # average ReadReq mshr miss latency
system.cpu.dcache.WriteReq_hits::.cpu.data     30739002                       # number of WriteReq hits
system.cpu.dcache.WriteReq_hits::total       30739002                       # number of WriteReq hits
system.cpu.dcache.WriteReq_misses::.cpu.data       522341                       # number of WriteReq misses
system.cpu.dcache.WriteReq_misses::total       522341                       # number of WriteReq misses
system.cpu.dcache.WriteReq_miss_latency::.cpu.data  28194017780                       # number of WriteReq miss cycles
system.cpu.dcache.WriteReq_miss_latency::total  28194017780                       # number of WriteReq miss cycles
system.cpu.dcache.WriteReq_accesses::.cpu.data     31261343                       # number of WriteReq accesses(hits+misses)
system.cpu.dcache.WriteReq_accesses::total     31261343                       # number of WriteReq accesses(hits+misses)
system.cpu.dcache.WriteReq_miss_rate::.cpu.data     0.016709                       # miss rate for WriteReq accesses
system.cpu.dcache.WriteReq_miss_rate::total     0.016709                       # miss rate for WriteReq accesses
system.cpu.dcache.WriteReq_avg_miss_latency::.cpu.data 53976.267955                       # average WriteReq miss latency
system.cpu.dcache.WriteReq_avg_miss_latency::total 53976.267955                       # average WriteReq miss latency
system.cpu.dcache.WriteReq_mshr_hits::.cpu.data        21675                       # number of WriteReq MSHR hits
system.cpu.dcache.WriteReq_mshr_hits::total        21675                       # number of WriteReq MSHR hits
system.cpu.dcache.WriteReq_mshr_misses::.cpu.data       500666                       # number of WriteReq MSHR misses
system.cpu.dcache.WriteReq_mshr_misses::total       500666                       # number of WriteReq MSHR misses
system.cpu.dcache.WriteReq_mshr_miss_latency::.cpu.data  27044082280                       # number of WriteReq MSHR miss cycles
system.cpu.dcache.WriteReq_mshr_miss_latency::total  27044082280                       # number of WriteReq MSHR miss cycles
system.cpu.dcache.WriteReq_mshr_miss_rate::.cpu.data     0.016015                       # mshr miss rate for WriteReq accesses
system.cpu.dcache.WriteReq_mshr_miss_rate::total     0.016015                       # mshr miss rate for WriteReq accesses
system.cpu.dcache.WriteReq_avg_mshr_miss_latency::.cpu.data 54016.214962                       # average WriteReq mshr miss latency
system.cpu.dcache.WriteReq_avg_mshr_miss_latency::total 54016.214962                       # average WriteReq mshr miss latency
system.cpu.dcache.power_state.pwrStateResidencyTicks::UNDEFINED  63172090500                       # Cumulative time (in ticks) in various power states
system.cpu.dcache.tags.tagsinuse           185.179921                       # Cycle average of tags in use
system.cpu.dcache.tags.total_refs            75705893                       # Total number of references to valid blocks.
system.cpu.dcache.tags.sampled_refs            713345                       # Sample count of references to valid blocks.
system.cpu.dcache.tags.avg_refs            106.128021                       # Average number of references to valid blocks.
system.cpu.dcache.tags.warmup_cycle            190500                       # Cycle when the warmup percentage was hit.
system.cpu.dcache.tags.occ_blocks::.cpu.data   185.179921                       # Average occupied blocks per requestor
system.cpu.dcache.tags.occ_percent::.cpu.data     0.361680                       # Average percentage of cache occupancy
system.cpu.dcache.tags.occ_percent::total     0.361680                       # Average percentage of cache occupancy
system.cpu.dcache.tags.occ_task_id_blocks::1024          173                       # Occupied blocks per task id
system.cpu.dcache.tags.age_task_id_blocks_1024::0           34                       # Occupied blocks per task id
system.cpu.dcache.tags.age_task_id_blocks_1024::1           44                       # Occupied blocks per task id
system.cpu.dcache.tags.age_task_id_blocks_1024::2            6                       # Occupied blocks per task id
system.cpu.dcache.tags.age_task_id_blocks_1024::3           28                       # Occupied blocks per task id
system.cpu.dcache.tags.age_task_id_blocks_1024::4           61                       # Occupied blocks per task id
system.cpu.dcache.tags.occ_task_id_percent::1024     0.337891                       # Percentage of cache occupancy per task id
system.cpu.dcache.tags.tag_accesses         607786857                       # Number of tag accesses
system.cpu.dcache.tags.data_accesses        607786857                       # Number of data accesses
system.cpu.dcache.tags.power_state.pwrStateResidencyTicks::UNDEFINED  63172090500                       # Cumulative time (in ticks) in various power states
system.cpu.decode.idleCycles                 78093276                       # Number of cycles decode is idle
system.cpu.decode.blockedCycles              53613121                       # Number of cycles decode is blocked
system.cpu.decode.runCycles                 113545840                       # Number of cycles decode is running
system.cpu.decode.unblockCycles               5690632                       # Number of cycles decode is unblocking
system.cpu.decode.squashCycles                1618107                       # Number of cycles decode is squashing
system.cpu.decode.branchResolved             18249891                       # Number of times decode resolved a  branch
system.cpu.decode.branchMispred                550812                       # Number of times decode detected a branch misprediction
system.cpu.decode.decodedInsts              432988106                       # Number of instructions handled by decode
system.cpu.decode.squashedInsts              12184258                       # Number of squashed instructions handled by decode
system.cpu.dtb.rdAccesses                    49372595                       # TLB accesses on read requests
system.cpu.dtb.wrAccesses                    33239009                       # TLB accesses on write requests
system.cpu.dtb.rdMisses                       2276266                       # TLB misses on read requests
system.cpu.dtb.wrMisses                       1370894                       # TLB misses on write requests
system.cpu.dtb.walker.power_state.pwrStateResidencyTicks::UNDEFINED  63172090500                       # Cumulative time (in ticks) in various power states
system.cpu.dtb_walker_cache.blocked_cycles::no_mshrs            0                       # number of cycles access was blocked
system.cpu.dtb_walker_cache.blocked_cycles::no_targets            0                       # number of cycles access was blocked
system.cpu.dtb_walker_cache.blocked::no_mshrs            0                       # number of cycles access was blocked
system.cpu.dtb_walker_cache.blocked::no_targets            0                       # number of cycles access was blocked
system.cpu.dtb_walker_cache.avg_blocked_cycles::no_mshrs          nan                       # average number of cycles each access was blocked
system.cpu.dtb_walker_cache.avg_blocked_cycles::no_targets          nan                       # average number of cycles each access was blocked
system.cpu.dtb_walker_cache.replacements            0                       # number of replacements
system.cpu.dtb_walker_cache.expired                 0                       # dead blocks evicted
system.cpu.dtb_walker_cache.power_state.pwrStateResidencyTicks::UNDEFINED  63172090500                       # Cumulative time (in ticks) in various power states
system.cpu.dtb_walker_cache.tags.tagsinuse            0                       # Cycle average of tags in use
system.cpu.dtb_walker_cache.tags.total_refs            0                       # Total number of references to valid blocks.
system.cpu.dtb_walker_cache.tags.sampled_refs            0                       # Sample count of references to valid blocks.
system.cpu.dtb_walker_cache.tags.avg_refs          nan                       # Average number of references to valid blocks.
system.cpu.dtb_walker_cache.tags.warmup_cycle            0                       # Cycle when the warmup percentage was hit.
system.cpu.dtb_walker_cache.tags.tag_accesses            0                       # Number of tag accesses
system.cpu.dtb_walker_cache.tags.data_accesses            0                       # Number of data accesses
system.cpu.dtb_walker_cache.tags.power_state.pwrStateResidencyTicks::UNDEFINED  63172090500                       # Cumulative time (in ticks) in various power states
system.cpu.fetch.icacheStallCycles            2084736                       # Number of cycles fetch is stalled on an Icache miss
system.cpu.fetch.insts                      246176064                       # Number of instructions fetch has processed
system.cpu.fetch.branches                    53001448                       # Number of branches that fetch encountered
system.cpu.fetch.predictedBranches           22014586                       # Number of branches that fetch has predicted taken
system.cpu.fetch.cycles                     123492537                       # Number of cycles fetch has run and was not squashing or blocked
system.cpu.fetch.squashCycles                 2159635                       # Number of cycles fetch has spent squashing
system.cpu.fetch.tlbCycles                       1084                       # Number of cycles fetch has spent waiting for tlb
system.cpu.fetch.miscStallCycles                   50                       # Number of cycles fetch has spent waiting on interrupts,or bad addresses, or out of MSHRs
system.cpu.fetch.cacheLines                  84694172                       # Number of cache lines fetched
system.cpu.fetch.icacheSquashes                 41042                       # Number of outstanding Icache misses that were squashed
system.cpu.fetch.tlbSquashes                      632                       # Number of outstanding ITLB misses that were squashed
system.cpu.fetch.SMTDist::samples           126280488                       # Number of Cycles each Thread Fetched
system.cpu.fetch.SMTDist::mean               0.492473                       # Number of Cycles each Thread Fetched
system.cpu.fetch.SMTDist::stdev              0.510943                       # Number of Cycles each Thread Fetched
system.cpu.fetch.SMTDist::underflows                0      0.00%      0.00% # Number of Cycles each Thread Fetched
system.cpu.fetch.SMTDist::-1                   702081      0.56%      0.56% # Number of Cycles each Thread Fetched
system.cpu.fetch.SMTDist::0                  62686652     49.64%     50.20% # Number of Cycles each Thread Fetched
system.cpu.fetch.SMTDist::1                  62891755     49.80%    100.00% # Number of Cycles each Thread Fetched
system.cpu.fetch.SMTDist::2                         0      0.00%    100.00% # Number of Cycles each Thread Fetched
system.cpu.fetch.SMTDist::overflows                 0      0.00%    100.00% # Number of Cycles each Thread Fetched
system.cpu.fetch.SMTDist::min_value                -1                       # Number of Cycles each Thread Fetched
system.cpu.fetch.SMTDist::max_value                 1                       # Number of Cycles each Thread Fetched
system.cpu.fetch.SMTDist::total             126280488                       # Number of Cycles each Thread Fetched
system.cpu.fetch.nisnDist::samples          126280488                       # Number of instructions fetched each cycle (Total)
system.cpu.fetch.nisnDist::mean              3.672557                       # Number of instructions fetched each cycle (Total)
system.cpu.fetch.nisnDist::stdev             2.824569                       # Number of instructions fetched each cycle (Total)
system.cpu.fetch.nisnDist::underflows               0      0.00%      0.00% # Number of instructions fetched each cycle (Total)
system.cpu.fetch.nisnDist::0                 30780623     24.37%     24.37% # Number of instructions fetched each cycle (Total)
system.cpu.fetch.nisnDist::1                  7351874      5.82%     30.20% # Number of instructions fetched each cycle (Total)
system.cpu.fetch.nisnDist::2                  8212512      6.50%     36.70% # Number of instructions fetched each cycle (Total)
system.cpu.fetch.nisnDist::3                 14519972     11.50%     48.20% # Number of instructions fetched each cycle (Total)
system.cpu.fetch.nisnDist::4                 11333919      8.98%     57.17% # Number of instructions fetched each cycle (Total)
system.cpu.fetch.nisnDist::5                 15770046     12.49%     69.66% # Number of instructions fetched each cycle (Total)
system.cpu.fetch.nisnDist::6                 12973649     10.27%     79.94% # Number of instructions fetched each cycle (Total)
system.cpu.fetch.nisnDist::7                  8295442      6.57%     86.50% # Number of instructions fetched each cycle (Total)
system.cpu.fetch.nisnDist::8                 17042451     13.50%    100.00% # Number of instructions fetched each cycle (Total)
system.cpu.fetch.nisnDist::overflows                0      0.00%    100.00% # Number of instructions fetched each cycle (Total)
system.cpu.fetch.nisnDist::min_value                0                       # Number of instructions fetched each cycle (Total)
system.cpu.fetch.nisnDist::max_value                8                       # Number of instructions fetched each cycle (Total)
system.cpu.fetch.nisnDist::total            126280488                       # Number of instructions fetched each cycle (Total)
system.cpu.fetch.branchRate                  0.419501                       # Number of branch fetches per cycle
system.cpu.fetch.rate                        1.948456                       # Number of inst fetches per cycle
system.cpu.icache.demand_hits::.cpu.inst     84420384                       # number of demand (read+write) hits
system.cpu.icache.demand_hits::total         84420384                       # number of demand (read+write) hits
system.cpu.icache.overall_hits::.cpu.inst     84420384                       # number of overall hits
system.cpu.icache.overall_hits::total        84420384                       # number of overall hits
system.cpu.icache.demand_misses::.cpu.inst       273785                       # number of demand (read+write) misses
system.cpu.icache.demand_misses::total         273785                       # number of demand (read+write) misses
system.cpu.icache.overall_misses::.cpu.inst       273785                       # number of overall misses
system.cpu.icache.overall_misses::total        273785                       # number of overall misses
system.cpu.icache.demand_miss_latency::.cpu.inst   2472741500                       # number of demand (read+write) miss cycles
system.cpu.icache.demand_miss_latency::total   2472741500                       # number of demand (read+write) miss cycles
[...]
system.mem_ctrls1.dram.perBankWrBursts::4         5340                       # Per bank write bursts
system.mem_ctrls1.dram.perBankWrBursts::5         5395                       # Per bank write bursts
system.mem_ctrls1.dram.perBankWrBursts::6         5434                       # Per bank write bursts
system.mem_ctrls1.dram.perBankWrBursts::7         5369                       # Per bank write bursts
system.mem_ctrls1.dram.perBankWrBursts::8         5464                       # Per bank write bursts
system.mem_ctrls1.dram.perBankWrBursts::9         5232                       # Per bank write bursts
system.mem_ctrls1.dram.perBankWrBursts::10         5291                       # Per bank write bursts
system.mem_ctrls1.dram.perBankWrBursts::11         5284                       # Per bank write bursts
system.mem_ctrls1.dram.perBankWrBursts::12         5308                       # Per bank write bursts
system.mem_ctrls1.dram.perBankWrBursts::13         5414                       # Per bank write bursts
system.mem_ctrls1.dram.perBankWrBursts::14         5255                       # Per bank write bursts
system.mem_ctrls1.dram.perBankWrBursts::15         5250                       # Per bank write bursts
system.mem_ctrls1.dram.perBankWrBursts::16         5325                       # Per bank write bursts
system.mem_ctrls1.dram.perBankWrBursts::17         5409                       # Per bank write bursts
system.mem_ctrls1.dram.perBankWrBursts::18         5320                       # Per bank write bursts
system.mem_ctrls1.dram.perBankWrBursts::19         5215                       # Per bank write bursts
system.mem_ctrls1.dram.perBankWrBursts::20         5249                       # Per bank write bursts
system.mem_ctrls1.dram.perBankWrBursts::21         5328                       # Per bank write bursts
system.mem_ctrls1.dram.perBankWrBursts::22         5355                       # Per bank write bursts
system.mem_ctrls1.dram.perBankWrBursts::23         5419                       # Per bank write bursts
system.mem_ctrls1.dram.perBankWrBursts::24         5386                       # Per bank write bursts
system.mem_ctrls1.dram.perBankWrBursts::25         5223                       # Per bank write bursts
system.mem_ctrls1.dram.perBankWrBursts::26         5370                       # Per bank write bursts
system.mem_ctrls1.dram.perBankWrBursts::27         5363                       # Per bank write bursts
system.mem_ctrls1.dram.perBankWrBursts::28         5368                       # Per bank write bursts
system.mem_ctrls1.dram.perBankWrBursts::29         5411                       # Per bank write bursts
system.mem_ctrls1.dram.perBankWrBursts::30         5320                       # Per bank write bursts
system.mem_ctrls1.dram.perBankWrBursts::31         5365                       # Per bank write bursts
system.mem_ctrls1.dram.totQLat             3411938689                       # Total ticks spent queuing
system.mem_ctrls1.dram.totBusLat            692876072                       # Total ticks spent in databus transfers
system.mem_ctrls1.dram.totMemAccLat        7049330121                       # Total ticks spent from burst creation until serviced by the DRAM
system.mem_ctrls1.dram.avgQLat               16407.81                       # Average queueing delay per DRAM burst
system.mem_ctrls1.dram.avgBusLat              3332.00                       # Average bus latency per DRAM burst
system.mem_ctrls1.dram.avgMemAccLat          33899.81                       # Average memory access latency per DRAM burst
system.mem_ctrls1.dram.readRowHits             125781                       # Number of row buffer hits during reads
system.mem_ctrls1.dram.writeRowHits             36420                       # Number of row buffer hits during writes
system.mem_ctrls1.dram.readRowHitRate           60.49                       # Row buffer hit rate for reads
system.mem_ctrls1.dram.writeRowHitRate          21.29                       # Row buffer hit rate for writes
system.mem_ctrls1.dram.bytesPerActivate::samples       216804                       # Bytes accessed per row activation
system.mem_ctrls1.dram.bytesPerActivate::mean   111.880740                       # Bytes accessed per row activation
system.mem_ctrls1.dram.bytesPerActivate::gmean    95.708920                       # Bytes accessed per row activation
system.mem_ctrls1.dram.bytesPerActivate::stdev    85.553170                       # Bytes accessed per row activation
system.mem_ctrls1.dram.bytesPerActivate::0-127       116468     53.72%     53.72% # Bytes accessed per row activation
system.mem_ctrls1.dram.bytesPerActivate::128-255        84590     39.02%     92.74% # Bytes accessed per row activation
system.mem_ctrls1.dram.bytesPerActivate::256-383        10055      4.64%     97.38% # Bytes accessed per row activation
system.mem_ctrls1.dram.bytesPerActivate::384-511         3003      1.39%     98.76% # Bytes accessed per row activation
system.mem_ctrls1.dram.bytesPerActivate::512-639         1309      0.60%     99.36% # Bytes accessed per row activation
system.mem_ctrls1.dram.bytesPerActivate::640-767          900      0.42%     99.78% # Bytes accessed per row activation
system.mem_ctrls1.dram.bytesPerActivate::768-895          200      0.09%     99.87% # Bytes accessed per row activation
system.mem_ctrls1.dram.bytesPerActivate::896-1023           32      0.01%     99.89% # Bytes accessed per row activation
system.mem_ctrls1.dram.bytesPerActivate::1024-1151          247      0.11%    100.00% # Bytes accessed per row activation
system.mem_ctrls1.dram.bytesPerActivate::total       216804                       # Bytes accessed per row activation
system.mem_ctrls1.dram.bytesRead             13308544                       # Total number of bytes read from DRAM
system.mem_ctrls1.dram.bytesWritten          10948096                       # Total number of bytes written to DRAM
system.mem_ctrls1.dram.avgRdBW             210.671262                       # Average DRAM read bandwidth in MiBytes/s
system.mem_ctrls1.dram.avgWrBW             173.305900                       # Average DRAM write bandwidth in MiBytes/s
system.mem_ctrls1.dram.peakBW                19207.00                       # Theoretical peak bandwidth in MiByte/s
system.mem_ctrls1.dram.busUtil                   2.00                       # Data bus utilization in percentage
system.mem_ctrls1.dram.busUtilRead               1.10                       # Data bus utilization in percentage for reads
system.mem_ctrls1.dram.busUtilWrite              0.90                       # Data bus utilization in percentage for writes
system.mem_ctrls1.dram.pageHitRate              42.80                       # Row buffer hit rate, read and write combined
system.mem_ctrls1.dram.power_state.pwrStateResidencyTicks::UNDEFINED  63172090500                       # Cumulative time (in ticks) in various power states
system.mem_ctrls1.dram.rank0.actEnergy   338085191.807987                       # Energy for activate commands per rank (pJ)
system.mem_ctrls1.dram.rank0.preEnergy   449471635.401593                       # Energy for precharge commands per rank (pJ)
system.mem_ctrls1.dram.rank0.readEnergy  438601065.369569                       # Energy for read commands per rank (pJ)
system.mem_ctrls1.dram.rank0.writeEnergy 321870080.448000                       # Energy for write commands per rank (pJ)
system.mem_ctrls1.dram.rank0.refreshEnergy 11239568689.472527                       # Energy for refresh commands per rank (pJ)
system.mem_ctrls1.dram.rank0.actBackEnergy 45267394560.494118                       # Energy for active background per rank (pJ)
system.mem_ctrls1.dram.rank0.preBackEnergy 6457014144.806323                       # Energy for precharge background per rank (pJ)
system.mem_ctrls1.dram.rank0.actPowerDownEnergy            0                       # Energy for active power-down per rank (pJ)
system.mem_ctrls1.dram.rank0.prePowerDownEnergy            0                       # Energy for precharge power-down per rank (pJ)
system.mem_ctrls1.dram.rank0.selfRefreshEnergy            0                       # Energy for self refresh per rank (pJ)
system.mem_ctrls1.dram.rank0.totalEnergy 64512005367.801743                       # Total energy per rank (pJ)
system.mem_ctrls1.dram.rank0.averagePower  1021.210551                       # Core power per rank (mW)
system.mem_ctrls1.dram.rank0.totalIdleTime            0                       # Total Idle time Per DRAM Rank
system.mem_ctrls1.dram.rank0.pwrStateTime::IDLE   9663958073                       # Time in different power states
system.mem_ctrls1.dram.rank0.pwrStateTime::REF   2839550000                       # Time in different power states
system.mem_ctrls1.dram.rank0.pwrStateTime::SREF            0                       # Time in different power states
system.mem_ctrls1.dram.rank0.pwrStateTime::PRE_PDN            0                       # Time in different power states
system.mem_ctrls1.dram.rank0.pwrStateTime::ACT  50668582427                       # Time in different power states
system.mem_ctrls1.dram.rank0.pwrStateTime::ACT_PDN            0                       # Time in different power states
system.mem_ctrls1.dram.rank1.actEnergy   338088310.559988                       # Energy for activate commands per rank (pJ)
system.mem_ctrls1.dram.rank1.preEnergy   449471635.401591                       # Energy for precharge commands per rank (pJ)
system.mem_ctrls1.dram.rank1.readEnergy  436085687.923167                       # Energy for read commands per rank (pJ)
system.mem_ctrls1.dram.rank1.writeEnergy 321073279.295999                       # Energy for write commands per rank (pJ)
system.mem_ctrls1.dram.rank1.refreshEnergy 11239568689.472527                       # Energy for refresh commands per rank (pJ)
system.mem_ctrls1.dram.rank1.actBackEnergy 45453756917.721466                       # Energy for active background per rank (pJ)
system.mem_ctrls1.dram.rank1.preBackEnergy 6313820469.196746                       # Energy for precharge background per rank (pJ)
system.mem_ctrls1.dram.rank1.actPowerDownEnergy            0                       # Energy for active power-down per rank (pJ)
system.mem_ctrls1.dram.rank1.prePowerDownEnergy            0                       # Energy for precharge power-down per rank (pJ)
system.mem_ctrls1.dram.rank1.selfRefreshEnergy            0                       # Energy for self refresh per rank (pJ)
system.mem_ctrls1.dram.rank1.totalEnergy 64551864989.572952                       # Total energy per rank (pJ)
system.mem_ctrls1.dram.rank1.averagePower  1021.841520                       # Core power per rank (mW)
system.mem_ctrls1.dram.rank1.totalIdleTime            0                       # Total Idle time Per DRAM Rank
system.mem_ctrls1.dram.rank1.pwrStateTime::IDLE   9443693937                       # Time in different power states
system.mem_ctrls1.dram.rank1.pwrStateTime::REF   2839550000                       # Time in different power states
system.mem_ctrls1.dram.rank1.pwrStateTime::SREF            0                       # Time in different power states
system.mem_ctrls1.dram.rank1.pwrStateTime::PRE_PDN            0                       # Time in different power states
system.mem_ctrls1.dram.rank1.pwrStateTime::ACT  50888846563                       # Time in different power states
system.mem_ctrls1.dram.rank1.pwrStateTime::ACT_PDN            0                       # Time in different power states
system.mem_ctrls1.power_state.pwrStateResidencyTicks::UNDEFINED  63172090500                       # Cumulative time (in ticks) in various power states
system.membus.trans_dist::ReadResp              93133                       # Transaction distribution
system.membus.trans_dist::WritebackDirty       342291                       # Transaction distribution
system.membus.trans_dist::CleanEvict             7782                       # Transaction distribution
system.membus.trans_dist::ReadExReq            322987                       # Transaction distribution
system.membus.trans_dist::ReadExResp           322987                       # Transaction distribution
system.membus.trans_dist::ReadSharedReq         93133                       # Transaction distribution
system.membus.pkt_count_system.l2.mem_side_port::system.mem_ctrls0.port       591277                       # Packet count per connected requestor and responder (bytes)
system.membus.pkt_count_system.l2.mem_side_port::system.mem_ctrls1.port       591036                       # Packet count per connected requestor and responder (bytes)
system.membus.pkt_count_system.l2.mem_side_port::total      1182313                       # Packet count per connected requestor and responder (bytes)
system.membus.pkt_count::total                1182313                       # Packet count per connected requestor and responder (bytes)
system.membus.pkt_size_system.l2.mem_side_port::system.mem_ctrls0.port     24273536                       # Cumulative packet size per connected requestor and responder (bytes)
system.membus.pkt_size_system.l2.mem_side_port::system.mem_ctrls1.port     24264768                       # Cumulative packet size per connected requestor and responder (bytes)
system.membus.pkt_size_system.l2.mem_side_port::total     48538304                       # Cumulative packet size per connected requestor and responder (bytes)
system.membus.pkt_size::total                48538304                       # Cumulative packet size per connected requestor and responder (bytes)
system.membus.snoops                                0                       # Total snoops (count)
system.membus.snoopTraffic                          0                       # Total snoop traffic (bytes)
system.membus.snoop_fanout::samples            416120                       # Request fanout histogram
system.membus.snoop_fanout::mean                    0                       # Request fanout histogram
system.membus.snoop_fanout::stdev                   0                       # Request fanout histogram
system.membus.snoop_fanout::underflows              0      0.00%      0.00% # Request fanout histogram
system.membus.snoop_fanout::0                  416120    100.00%    100.00% # Request fanout histogram
system.membus.snoop_fanout::1                       0      0.00%    100.00% # Request fanout histogram
system.membus.snoop_fanout::overflows               0      0.00%    100.00% # Request fanout histogram
system.membus.snoop_fanout::min_value               0                       # Request fanout histogram
system.membus.snoop_fanout::max_value               0                       # Request fanout histogram
system.membus.snoop_fanout::total              416120                       # Request fanout histogram
system.membus.power_state.pwrStateResidencyTicks::UNDEFINED  63172090500                       # Cumulative time (in ticks) in various power states
system.membus.reqLayer4.occupancy          1116943461                       # Layer occupancy (ticks)
system.membus.reqLayer4.utilization               1.8                       # Layer utilization (%)
system.membus.reqLayer5.occupancy          1116777929                       # Layer occupancy (ticks)
system.membus.reqLayer5.utilization               1.8                       # Layer utilization (%)
system.membus.respLayer1.occupancy         2212505022                       # Layer occupancy (ticks)
system.membus.respLayer1.utilization              3.5                       # Layer utilization (%)
system.tol2bus.trans_dist::ReadResp            483563                       # Transaction distribution
system.tol2bus.trans_dist::WritebackDirty       997967                       # Transaction distribution
system.tol2bus.trans_dist::WritebackClean       328057                       # Transaction distribution
system.tol2bus.trans_dist::CleanEvict            8831                       # Transaction distribution
system.tol2bus.trans_dist::HardPFReq               63                       # Transaction distribution
system.tol2bus.trans_dist::ReadExReq           500855                       # Transaction distribution
system.tol2bus.trans_dist::ReadExResp          500855                       # Transaction distribution
system.tol2bus.trans_dist::ReadCleanReq        271073                       # Transaction distribution
system.tol2bus.trans_dist::ReadSharedReq       212490                       # Transaction distribution
system.tol2bus.pkt_count_system.cpu.icache.mem_side_port::system.l2.cpu_side_port       812707                       # Packet count per connected requestor and responder (bytes)
system.tol2bus.pkt_count_system.cpu.dcache.mem_side_port::system.l2.cpu_side_port      2139862                       # Packet count per connected requestor and responder (bytes)
system.tol2bus.pkt_count::total               2952569                       # Packet count per connected requestor and responder (bytes)
system.tol2bus.pkt_size_system.cpu.icache.mem_side_port::system.l2.cpu_side_port     34664576                       # Cumulative packet size per connected requestor and responder (bytes)
system.tol2bus.pkt_size_system.cpu.dcache.mem_side_port::system.l2.cpu_side_port     91297088                       # Cumulative packet size per connected requestor and responder (bytes)
system.tol2bus.pkt_size::total              125961664                       # Cumulative packet size per connected requestor and responder (bytes)
system.tol2bus.snoops                          351185                       # Total snoops (count)
system.tol2bus.snoopTraffic                  21906624                       # Total snoop traffic (bytes)
system.tol2bus.snoop_fanout::samples          1335603                       # Request fanout histogram
system.tol2bus.snoop_fanout::mean            0.000797                       # Request fanout histogram
system.tol2bus.snoop_fanout::stdev           0.028214                       # Request fanout histogram
system.tol2bus.snoop_fanout::underflows             0      0.00%      0.00% # Request fanout histogram
system.tol2bus.snoop_fanout::0                1334539     99.92%     99.92% # Request fanout histogram
system.tol2bus.snoop_fanout::1                   1064      0.08%    100.00% # Request fanout histogram
system.tol2bus.snoop_fanout::2                      0      0.00%    100.00% # Request fanout histogram
system.tol2bus.snoop_fanout::3                      0      0.00%    100.00% # Request fanout histogram
system.tol2bus.snoop_fanout::4                      0      0.00%    100.00% # Request fanout histogram
system.tol2bus.snoop_fanout::overflows              0      0.00%    100.00% # Request fanout histogram
system.tol2bus.snoop_fanout::min_value              0                       # Request fanout histogram
system.tol2bus.snoop_fanout::max_value              1                       # Request fanout histogram
system.tol2bus.snoop_fanout::total            1335603                       # Request fanout histogram
system.tol2bus.power_state.pwrStateResidencyTicks::UNDEFINED  63172090500                       # Cumulative time (in ticks) in various power states
system.tol2bus.reqLayer0.occupancy         1967808500                       # Layer occupancy (ticks)
system.tol2bus.reqLayer0.utilization              3.1                       # Layer utilization (%)
system.tol2bus.respLayer0.occupancy         406632953                       # Layer occupancy (ticks)
system.tol2bus.respLayer0.utilization             0.6                       # Layer utilization (%)
system.tol2bus.respLayer1.occupancy        1070154226                       # Layer occupancy (ticks)
system.tol2bus.respLayer1.utilization             1.7                       # Layer utilization (%)
system.voltage_domain.voltage                       1                       # Voltage in Volts

---------- End Simulation Statistics   ----------
