
---------- Begin Simulation Statistics ----------
final_tick                                 3975112500                       # Number of ticks from beginning of simulation (restored from checkpoints and never reset)
host_mem_usage                               67686956                       # Number of bytes of host memory used
host_seconds                                    41.32                       # Real time elapsed on the host
host_tick_rate                               96196095                       # Simulator tick rate (ticks/s)
sim_freq                                 1000000000000                       # Frequency of simulated ticks
sim_seconds                                  0.003975                       # Number of seconds simulated
sim_ticks                                  3975112500                       # Number of ticks simulated
system.cpu.cc_regfile_reads                   8086705                       # number of cc regfile reads
system.cpu.cc_regfile_writes                  5933861                       # number of cc regfile writes
system.cpu.committedInsts::0                  3810237                       # Number of Instructions Simulated
system.cpu.committedInsts::1                  3810237                       # Number of Instructions Simulated
system.cpu.committedInsts::total              7620474                       # Number of Instructions Simulated
system.cpu.committedOps::0                    6845422                       # Number of Ops (including micro ops) Simulated
system.cpu.committedOps::1                    6845422                       # Number of Ops (including micro ops) Simulated
system.cpu.committedOps::total               13690844                       # Number of Ops (including micro ops) Simulated
system.cpu.cpi::0                            2.086544                       # CPI: Cycles Per Instruction
system.cpu.cpi::1                            2.086544                       # CPI: Cycles Per Instruction
system.cpu.cpi_total                         1.043272                       # CPI: Total CPI of All Threads
system.cpu.fp_regfile_reads                    456646                       # number of floating regfile reads
system.cpu.fp_regfile_writes                   246274                       # number of floating regfile writes
system.cpu.idleCycles                          196634                       # Total number of cycles that the CPU has spent unscheduled due to idling
system.cpu.iew.branchMispredicts                73778                       # Number of branch mispredicts detected at execute
system.cpu.iew.exec_branches::0                731582                       # Number of branches executed
system.cpu.iew.exec_branches::1                731834                       # Number of branches executed
system.cpu.iew.exec_branches::total           1463416                       # Number of branches executed
system.cpu.iew.exec_nop::0                          0                       # number of nop insts executed
system.cpu.iew.exec_nop::1                          0                       # number of nop insts executed
system.cpu.iew.exec_nop::total                      0                       # number of nop insts executed
system.cpu.iew.exec_rate                     1.953407                       # Inst execution rate
system.cpu.iew.exec_refs::0                   1570842                       # number of memory reference insts executed
system.cpu.iew.exec_refs::1                   1570983                       # number of memory reference insts executed
system.cpu.iew.exec_refs::total               3141825                       # number of memory reference insts executed
system.cpu.iew.exec_stores::0                  468909                       # Number of stores executed
system.cpu.iew.exec_stores::1                  469090                       # Number of stores executed
system.cpu.iew.exec_stores::total              937999                       # Number of stores executed
system.cpu.iew.exec_swp::0                          0                       # number of swp insts executed
system.cpu.iew.exec_swp::1                          0                       # number of swp insts executed
system.cpu.iew.exec_swp::total                      0                       # number of swp insts executed
system.cpu.iew.iewBlockCycles                 2051549                       # Number of cycles IEW is blocking
system.cpu.iew.iewDispLoadInsts               2212031                       # Number of dispatched load instructions
system.cpu.iew.iewDispNonSpecInsts               2001                       # Number of dispatched non-speculative instructions
system.cpu.iew.iewDispSquashedInsts                 0                       # Number of squashed instructions skipped by dispatch
system.cpu.iew.iewDispStoreInsts              1040797                       # Number of dispatched store instructions
system.cpu.iew.iewDispatchedInsts            16606659                       # Number of instructions dispatched to IQ
system.cpu.iew.iewExecLoadInsts::0            1101933                       # Number of load instructions executed
system.cpu.iew.iewExecLoadInsts::1            1101893                       # Number of load instructions executed
system.cpu.iew.iewExecLoadInsts::total        2203826                       # Number of load instructions executed
system.cpu.iew.iewExecSquashedInsts            107127                       # Number of squashed instructions skipped in execute
system.cpu.iew.iewExecutedInsts              15530031                       # Number of executed instructions
system.cpu.iew.iewIQFullEvents                  10805                       # Number of times the IQ has become full, causing a stall
system.cpu.iew.iewIdleCycles                        0                       # Number of cycles IEW is idle
system.cpu.iew.iewLSQFullEvents                  6197                       # Number of times the LSQ has become full, causing a stall
system.cpu.iew.iewSquashCycles                  68617                       # Number of cycles IEW is squashing
system.cpu.iew.iewUnblockCycles                 24489                       # Number of cycles IEW is unblocking
system.cpu.iew.memOrderViolationEvents            343                       # Number of memory order violations
system.cpu.iew.predictedNotTakenIncorrect        52399                       # Number of branches that were predicted not taken incorrectly
system.cpu.iew.predictedTakenIncorrect          21379                       # Number of branches that were predicted taken incorrectly
system.cpu.iew.wb_consumers::0                9773961                       # num instructions consuming a value
system.cpu.iew.wb_consumers::1                9791094                       # num instructions consuming a value
system.cpu.iew.wb_consumers::total           19565055                       # num instructions consuming a value
system.cpu.iew.wb_count::0                    7674184                       # cumulative count of insts written-back
system.cpu.iew.wb_count::1                    7678060                       # cumulative count of insts written-back
system.cpu.iew.wb_count::total               15352244                       # cumulative count of insts written-back
system.cpu.iew.wb_fanout::0                  0.585696                       # average fanout of values written-back
system.cpu.iew.wb_fanout::1                  0.585389                       # average fanout of values written-back
system.cpu.iew.wb_fanout::total              0.585543                       # average fanout of values written-back
system.cpu.iew.wb_producers::0                5724572                       # num instructions producing a value
system.cpu.iew.wb_producers::1                5731600                       # num instructions producing a value
system.cpu.iew.wb_producers::total           11456172                       # num instructions producing a value
system.cpu.iew.wb_rate::0                    0.965279                       # insts written-back per cycle
system.cpu.iew.wb_rate::1                    0.965766                       # insts written-back per cycle
system.cpu.iew.wb_rate::total                1.931045                       # insts written-back per cycle
system.cpu.iew.wb_sent::0                     7676683                       # cumulative count of insts sent to commit
system.cpu.iew.wb_sent::1                     7680644                       # cumulative count of insts sent to commit
system.cpu.iew.wb_sent::total                15357327                       # cumulative count of insts sent to commit
system.cpu.int_regfile_reads                 24179669                       # number of integer regfile reads
system.cpu.int_regfile_writes                12734768                       # number of integer regfile writes
system.cpu.ipc::0                            0.479261                       # IPC: Instructions Per Cycle
system.cpu.ipc::1                            0.479261                       # IPC: Instructions Per Cycle
system.cpu.ipc_total                         0.958523                       # IPC: Total IPC of All Threads
system.cpu.iq.FU_type_0::No_OpClass             91902      1.16%      1.16% # Type of FU issued
system.cpu.iq.FU_type_0::IntAlu               5991288     75.77%     76.94% # Type of FU issued
system.cpu.iq.FU_type_0::IntMult                  525      0.01%     76.94% # Type of FU issued
system.cpu.iq.FU_type_0::IntDiv                 46526      0.59%     77.53% # Type of FU issued
system.cpu.iq.FU_type_0::FloatAdd               11697      0.15%     77.68% # Type of FU issued
system.cpu.iq.FU_type_0::FloatCmp                   0      0.00%     77.68% # Type of FU issued
system.cpu.iq.FU_type_0::FloatCvt                1520      0.02%     77.70% # Type of FU issued
system.cpu.iq.FU_type_0::FloatMult                  0      0.00%     77.70% # Type of FU issued
system.cpu.iq.FU_type_0::FloatMultAcc               0      0.00%     77.70% # Type of FU issued
system.cpu.iq.FU_type_0::FloatDiv                   0      0.00%     77.70% # Type of FU issued
system.cpu.iq.FU_type_0::FloatMisc                  0      0.00%     77.70% # Type of FU issued
system.cpu.iq.FU_type_0::FloatSqrt                  0      0.00%     77.70% # Type of FU issued
system.cpu.iq.FU_type_0::SimdAdd                 8744      0.11%     77.81% # Type of FU issued
system.cpu.iq.FU_type_0::SimdAddAcc                 0      0.00%     77.81% # Type of FU issued
system.cpu.iq.FU_type_0::SimdAlu                31658      0.40%     78.21% # Type of FU issued
system.cpu.iq.FU_type_0::SimdCmp                  184      0.00%     78.21% # Type of FU issued
system.cpu.iq.FU_type_0::SimdCvt                21617      0.27%     78.48% # Type of FU issued
system.cpu.iq.FU_type_0::SimdMisc               22073      0.28%     78.76% # Type of FU issued
system.cpu.iq.FU_type_0::SimdMult                   0      0.00%     78.76% # Type of FU issued
system.cpu.iq.FU_type_0::SimdMultAcc                0      0.00%     78.76% # Type of FU issued
system.cpu.iq.FU_type_0::SimdShift               1491      0.02%     78.78% # Type of FU issued
system.cpu.iq.FU_type_0::SimdShiftAcc               0      0.00%     78.78% # Type of FU issued
system.cpu.iq.FU_type_0::SimdDiv                    0      0.00%     78.78% # Type of FU issued
system.cpu.iq.FU_type_0::SimdSqrt                   0      0.00%     78.78% # Type of FU issued
system.cpu.iq.FU_type_0::SimdFloatAdd               5      0.00%     78.78% # Type of FU issued
system.cpu.iq.FU_type_0::SimdFloatAlu               0      0.00%     78.78% # Type of FU issued
system.cpu.iq.FU_type_0::SimdFloatCmp               0      0.00%     78.78% # Type of FU issued
system.cpu.iq.FU_type_0::SimdFloatCvt             198      0.00%     78.78% # Type of FU issued
system.cpu.iq.FU_type_0::SimdFloatDiv               1      0.00%     78.78% # Type of FU issued
system.cpu.iq.FU_type_0::SimdFloatMisc              0      0.00%     78.78% # Type of FU issued
system.cpu.iq.FU_type_0::SimdFloatMult             66      0.00%     78.79% # Type of FU issued
system.cpu.iq.FU_type_0::SimdFloatMultAcc            0      0.00%     78.79% # Type of FU issued
system.cpu.iq.FU_type_0::SimdFloatSqrt              1      0.00%     78.79% # Type of FU issued
system.cpu.iq.FU_type_0::SimdReduceAdd              0      0.00%     78.79% # Type of FU issued
system.cpu.iq.FU_type_0::SimdReduceAlu              0      0.00%     78.79% # Type of FU issued
system.cpu.iq.FU_type_0::SimdReduceCmp              0      0.00%     78.79% # Type of FU issued
system.cpu.iq.FU_type_0::SimdFloatReduceAdd            0      0.00%     78.79% # Type of FU issued
system.cpu.iq.FU_type_0::SimdFloatReduceCmp            0      0.00%     78.79% # Type of FU issued
system.cpu.iq.FU_type_0::SimdAes                    0      0.00%     78.79% # Type of FU issued
system.cpu.iq.FU_type_0::SimdAesMix                 0      0.00%     78.79% # Type of FU issued
system.cpu.iq.FU_type_0::SimdSha1Hash               0      0.00%     78.79% # Type of FU issued
system.cpu.iq.FU_type_0::SimdSha1Hash2              0      0.00%     78.79% # Type of FU issued
system.cpu.iq.FU_type_0::SimdSha256Hash             0      0.00%     78.79% # Type of FU issued
system.cpu.iq.FU_type_0::SimdSha256Hash2            0      0.00%     78.79% # Type of FU issued
system.cpu.iq.FU_type_0::SimdShaSigma2              0      0.00%     78.79% # Type of FU issued
system.cpu.iq.FU_type_0::SimdShaSigma3              0      0.00%     78.79% # Type of FU issued
system.cpu.iq.FU_type_0::SimdPredAlu                0      0.00%     78.79% # Type of FU issued
system.cpu.iq.FU_type_0::MemRead              1149190     14.53%     93.32% # Type of FU issued
system.cpu.iq.FU_type_0::MemWrite              444841      5.63%     98.95% # Type of FU issued
system.cpu.iq.FU_type_0::FloatMemRead           49677      0.63%     99.57% # Type of FU issued
system.cpu.iq.FU_type_0::FloatMemWrite          33676      0.43%    100.00% # Type of FU issued
system.cpu.iq.FU_type_0::IprAccess                  0      0.00%    100.00% # Type of FU issued
system.cpu.iq.FU_type_0::InstPrefetch               0      0.00%    100.00% # Type of FU issued
system.cpu.iq.FU_type_0::total                7906880                       # Type of FU issued
system.cpu.iq.FU_type_1::No_OpClass             91832      1.16%      1.16% # Type of FU issued
system.cpu.iq.FU_type_1::IntAlu               5994324     75.78%     76.94% # Type of FU issued
system.cpu.iq.FU_type_1::IntMult                  525      0.01%     76.94% # Type of FU issued
system.cpu.iq.FU_type_1::IntDiv                 46551      0.59%     77.53% # Type of FU issued
system.cpu.iq.FU_type_1::FloatAdd               11690      0.15%     77.68% # Type of FU issued
system.cpu.iq.FU_type_1::FloatCmp                   0      0.00%     77.68% # Type of FU issued
system.cpu.iq.FU_type_1::FloatCvt                1521      0.02%     77.70% # Type of FU issued
system.cpu.iq.FU_type_1::FloatMult                  0      0.00%     77.70% # Type of FU issued
system.cpu.iq.FU_type_1::FloatMultAcc               0      0.00%     77.70% # Type of FU issued
system.cpu.iq.FU_type_1::FloatDiv                   0      0.00%     77.70% # Type of FU issued
system.cpu.iq.FU_type_1::FloatMisc                  0      0.00%     77.70% # Type of FU issued
system.cpu.iq.FU_type_1::FloatSqrt                  0      0.00%     77.70% # Type of FU issued
system.cpu.iq.FU_type_1::SimdAdd                 8736      0.11%     77.81% # Type of FU issued
system.cpu.iq.FU_type_1::SimdAddAcc                 0      0.00%     77.81% # Type of FU issued
system.cpu.iq.FU_type_1::SimdAlu                31702      0.40%     78.21% # Type of FU issued
system.cpu.iq.FU_type_1::SimdCmp                  178      0.00%     78.21% # Type of FU issued
system.cpu.iq.FU_type_1::SimdCvt                21712      0.27%     78.49% # Type of FU issued
system.cpu.iq.FU_type_1::SimdMisc               22037      0.28%     78.77% # Type of FU issued
system.cpu.iq.FU_type_1::SimdMult                   0      0.00%     78.77% # Type of FU issued
system.cpu.iq.FU_type_1::SimdMultAcc                0      0.00%     78.77% # Type of FU issued
system.cpu.iq.FU_type_1::SimdShift               1476      0.02%     78.79% # Type of FU issued
system.cpu.iq.FU_type_1::SimdShiftAcc               0      0.00%     78.79% # Type of FU issued
system.cpu.iq.FU_type_1::SimdDiv                    0      0.00%     78.79% # Type of FU issued
system.cpu.iq.FU_type_1::SimdSqrt                   0      0.00%     78.79% # Type of FU issued
system.cpu.iq.FU_type_1::SimdFloatAdd               5      0.00%     78.79% # Type of FU issued
system.cpu.iq.FU_type_1::SimdFloatAlu               0      0.00%     78.79% # Type of FU issued
system.cpu.iq.FU_type_1::SimdFloatCmp               0      0.00%     78.79% # Type of FU issued
system.cpu.iq.FU_type_1::SimdFloatCvt             199      0.00%     78.79% # Type of FU issued
system.cpu.iq.FU_type_1::SimdFloatDiv               1      0.00%     78.79% # Type of FU issued
system.cpu.iq.FU_type_1::SimdFloatMisc              0      0.00%     78.79% # Type of FU issued
system.cpu.iq.FU_type_1::SimdFloatMult             65      0.00%     78.79% # Type of FU issued
system.cpu.iq.FU_type_1::SimdFloatMultAcc            0      0.00%     78.79% # Type of FU issued
system.cpu.iq.FU_type_1::SimdFloatSqrt              1      0.00%     78.79% # Type of FU issued
system.cpu.iq.FU_type_1::SimdReduceAdd              0      0.00%     78.79% # Type of FU issued
system.cpu.iq.FU_type_1::SimdReduceAlu              0      0.00%     78.79% # Type of FU issued
system.cpu.iq.FU_type_1::SimdReduceCmp              0      0.00%     78.79% # Type of FU issued
system.cpu.iq.FU_type_1::SimdFloatReduceAdd            0      0.00%     78.79% # Type of FU issued
system.cpu.iq.FU_type_1::SimdFloatReduceCmp            0      0.00%     78.79% # Type of FU issued
system.cpu.iq.FU_type_1::SimdAes                    0      0.00%     78.79% # Type of FU issued
system.cpu.iq.FU_type_1::SimdAesMix                 0      0.00%     78.79% # Type of FU issued
system.cpu.iq.FU_type_1::SimdSha1Hash               0      0.00%     78.79% # Type of FU issued
system.cpu.iq.FU_type_1::SimdSha1Hash2              0      0.00%     78.79% # Type of FU issued
system.cpu.iq.FU_type_1::SimdSha256Hash             0      0.00%     78.79% # Type of FU issued
system.cpu.iq.FU_type_1::SimdSha256Hash2            0      0.00%     78.79% # Type of FU issued
system.cpu.iq.FU_type_1::SimdShaSigma2              0      0.00%     78.79% # Type of FU issued
system.cpu.iq.FU_type_1::SimdShaSigma3              0      0.00%     78.79% # Type of FU issued
system.cpu.iq.FU_type_1::SimdPredAlu                0      0.00%     78.79% # Type of FU issued
system.cpu.iq.FU_type_1::MemRead              1149721     14.53%     93.32% # Type of FU issued
system.cpu.iq.FU_type_1::MemWrite              444948      5.62%     98.95% # Type of FU issued
system.cpu.iq.FU_type_1::FloatMemRead           49433      0.62%     99.57% # Type of FU issued
system.cpu.iq.FU_type_1::FloatMemWrite          33792      0.43%    100.00% # Type of FU issued
system.cpu.iq.FU_type_1::IprAccess                  0      0.00%    100.00% # Type of FU issued
system.cpu.iq.FU_type_1::InstPrefetch               0      0.00%    100.00% # Type of FU issued
system.cpu.iq.FU_type_1::total                7910449                       # Type of FU issued
system.cpu.iq.FU_type::total                 15817329      0.00%      0.00% # Type of FU issued
system.cpu.iq.fp_alu_accesses                  692875                       # Number of floating point alu accesses
system.cpu.iq.fp_inst_queue_reads             1076191                       # Number of floating instruction queue reads
system.cpu.iq.fp_inst_queue_wakeup_accesses       338178                       # Number of floating instruction queue wakeup accesses
system.cpu.iq.fp_inst_queue_writes             532726                       # Number of floating instruction queue writes
system.cpu.iq.fu_busy_cnt::0                  4585987                       # FU busy when requested
system.cpu.iq.fu_busy_cnt::1                  4566301                       # FU busy when requested
system.cpu.iq.fu_busy_cnt::total              9152288                       # FU busy when requested
system.cpu.iq.fu_busy_rate::0                0.289934                       # FU busy rate (busy events/executed inst)
system.cpu.iq.fu_busy_rate::1                0.288690                       # FU busy rate (busy events/executed inst)
system.cpu.iq.fu_busy_rate::total            0.578624                       # FU busy rate (busy events/executed inst)
system.cpu.iq.fu_full::No_OpClass                   0      0.00%      0.00% # attempts to use FU when none available
system.cpu.iq.fu_full::IntAlu                 4836429     52.84%     52.84% # attempts to use FU when none available
system.cpu.iq.fu_full::IntMult                    178      0.00%     52.85% # attempts to use FU when none available
system.cpu.iq.fu_full::IntDiv                  434510      4.75%     57.59% # attempts to use FU when none available
system.cpu.iq.fu_full::FloatAdd                 22510      0.25%     57.84% # attempts to use FU when none available
system.cpu.iq.fu_full::FloatCmp                     0      0.00%     57.84% # attempts to use FU when none available
system.cpu.iq.fu_full::FloatCvt                  2169      0.02%     57.86% # attempts to use FU when none available
system.cpu.iq.fu_full::FloatMult                    0      0.00%     57.86% # attempts to use FU when none available
system.cpu.iq.fu_full::FloatMultAcc                 0      0.00%     57.86% # attempts to use FU when none available
system.cpu.iq.fu_full::FloatDiv                     0      0.00%     57.86% # attempts to use FU when none available
system.cpu.iq.fu_full::FloatMisc                    0      0.00%     57.86% # attempts to use FU when none available
system.cpu.iq.fu_full::FloatSqrt                    0      0.00%     57.86% # attempts to use FU when none available
system.cpu.iq.fu_full::SimdAdd                  15647      0.17%     58.03% # attempts to use FU when none available
system.cpu.iq.fu_full::SimdAddAcc                   0      0.00%     58.03% # attempts to use FU when none available
system.cpu.iq.fu_full::SimdAlu                  40460      0.44%     58.48% # attempts to use FU when none available
system.cpu.iq.fu_full::SimdCmp                    350      0.00%     58.48% # attempts to use FU when none available
system.cpu.iq.fu_full::SimdCvt                  37186      0.41%     58.89% # attempts to use FU when none available
system.cpu.iq.fu_full::SimdMisc                 36719      0.40%     59.29% # attempts to use FU when none available
system.cpu.iq.fu_full::SimdMult                     0      0.00%     59.29% # attempts to use FU when none available
system.cpu.iq.fu_full::SimdMultAcc                  0      0.00%     59.29% # attempts to use FU when none available
system.cpu.iq.fu_full::SimdShift                 3220      0.04%     59.32% # attempts to use FU when none available
system.cpu.iq.fu_full::SimdShiftAcc                 0      0.00%     59.32% # attempts to use FU when none available
system.cpu.iq.fu_full::SimdDiv                      0      0.00%     59.32% # attempts to use FU when none available
system.cpu.iq.fu_full::SimdSqrt                     0      0.00%     59.32% # attempts to use FU when none available
system.cpu.iq.fu_full::SimdFloatAdd                10      0.00%     59.32% # attempts to use FU when none available
system.cpu.iq.fu_full::SimdFloatAlu                 0      0.00%     59.32% # attempts to use FU when none available
system.cpu.iq.fu_full::SimdFloatCmp                 0      0.00%     59.32% # attempts to use FU when none available
system.cpu.iq.fu_full::SimdFloatCvt               214      0.00%     59.33% # attempts to use FU when none available
system.cpu.iq.fu_full::SimdFloatDiv                 2      0.00%     59.33% # attempts to use FU when none available
system.cpu.iq.fu_full::SimdFloatMisc                0      0.00%     59.33% # attempts to use FU when none available
system.cpu.iq.fu_full::SimdFloatMult              126      0.00%     59.33% # attempts to use FU when none available
system.cpu.iq.fu_full::SimdFloatMultAcc             0      0.00%     59.33% # attempts to use FU when none available
system.cpu.iq.fu_full::SimdFloatSqrt                0      0.00%     59.33% # attempts to use FU when none available
system.cpu.iq.fu_full::SimdReduceAdd                0      0.00%     59.33% # attempts to use FU when none available
system.cpu.iq.fu_full::SimdReduceAlu                0      0.00%     59.33% # attempts to use FU when none available
system.cpu.iq.fu_full::SimdReduceCmp                0      0.00%     59.33% # attempts to use FU when none available
system.cpu.iq.fu_full::SimdFloatReduceAdd            0      0.00%     59.33% # attempts to use FU when none available
system.cpu.iq.fu_full::SimdFloatReduceCmp            0      0.00%     59.33% # attempts to use FU when none available
system.cpu.iq.fu_full::SimdAes                      0      0.00%     59.33% # attempts to use FU when none available
system.cpu.iq.fu_full::SimdAesMix                   0      0.00%     59.33% # attempts to use FU when none available
system.cpu.iq.fu_full::SimdSha1Hash                 0      0.00%     59.33% # attempts to use FU when none available
system.cpu.iq.fu_full::SimdSha1Hash2                0      0.00%     59.33% # attempts to use FU when none available
system.cpu.iq.fu_full::SimdSha256Hash               0      0.00%     59.33% # attempts to use FU when none available
system.cpu.iq.fu_full::SimdSha256Hash2              0      0.00%     59.33% # attempts to use FU when none available
system.cpu.iq.fu_full::SimdShaSigma2                0      0.00%     59.33% # attempts to use FU when none available
system.cpu.iq.fu_full::SimdShaSigma3                0      0.00%     59.33% # attempts to use FU when none available
system.cpu.iq.fu_full::SimdPredAlu                  0      0.00%     59.33% # attempts to use FU when none available
system.cpu.iq.fu_full::MemRead                2663770     29.10%     88.43% # attempts to use FU when none available
system.cpu.iq.fu_full::MemWrite               1058788     11.57%    100.00% # attempts to use FU when none available
system.cpu.iq.fu_full::FloatMemRead                 0      0.00%    100.00% # attempts to use FU when none available
system.cpu.iq.fu_full::FloatMemWrite                0      0.00%    100.00% # attempts to use FU when none available
system.cpu.iq.fu_full::IprAccess                    0      0.00%    100.00% # attempts to use FU when none available
system.cpu.iq.fu_full::InstPrefetch                 0      0.00%    100.00% # attempts to use FU when none available
system.cpu.iq.int_alu_accesses               33236080                       # Number of integer alu accesses
system.cpu.iq.int_inst_queue_reads           56737475                       # Number of integer instruction queue reads
system.cpu.iq.int_inst_queue_wakeup_accesses     15014066                       # Number of integer instruction queue wakeup accesses
system.cpu.iq.int_inst_queue_writes          18990070                       # Number of integer instruction queue writes
system.cpu.iq.iqInstsAdded                   16603847                       # Number of instructions added to the IQ (excludes non-spec)
system.cpu.iq.iqInstsIssued                  15817329                       # Number of instructions issued
system.cpu.iq.iqNonSpecInstsAdded                2812                       # Number of non-speculative instructions added to the IQ
system.cpu.iq.iqSquashedInstsExamined         2915794                       # Number of squashed instructions iterated over during squash; mainly for profiling
system.cpu.iq.iqSquashedInstsIssued            130056                       # Number of squashed instructions issued
system.cpu.iq.iqSquashedNonSpecRemoved            165                       # Number of squashed non-spec instructions that were removed
system.cpu.iq.iqSquashedOperandsExamined      3993568                       # Number of squashed operands that are examined and possibly removed from graph
system.cpu.iq.issued_per_cycle::samples       7753592                       # Number of insts issued each cycle
system.cpu.iq.issued_per_cycle::mean         2.040000                       # Number of insts issued each cycle
system.cpu.iq.issued_per_cycle::stdev        1.988225                       # Number of insts issued each cycle
system.cpu.iq.issued_per_cycle::underflows            0      0.00%      0.00% # Number of insts issued each cycle
system.cpu.iq.issued_per_cycle::0             2842742     36.66%     36.66% # Number of insts issued each cycle
system.cpu.iq.issued_per_cycle::1             1017955     13.13%     49.79% # Number of insts issued each cycle
system.cpu.iq.issued_per_cycle::2              712133      9.18%     58.98% # Number of insts issued each cycle
system.cpu.iq.issued_per_cycle::3              804265     10.37%     69.35% # Number of insts issued each cycle
system.cpu.iq.issued_per_cycle::4             1218530     15.72%     85.07% # Number of insts issued each cycle
system.cpu.iq.issued_per_cycle::5              896990     11.57%     96.63% # Number of insts issued each cycle
system.cpu.iq.issued_per_cycle::6              228782      2.95%     99.58% # Number of insts issued each cycle
system.cpu.iq.issued_per_cycle::7               27009      0.35%     99.93% # Number of insts issued each cycle
system.cpu.iq.issued_per_cycle::8                5186      0.07%    100.00% # Number of insts issued each cycle
system.cpu.iq.issued_per_cycle::overflows            0      0.00%    100.00% # Number of insts issued each cycle
system.cpu.iq.issued_per_cycle::min_value            0                       # Number of insts issued each cycle
system.cpu.iq.issued_per_cycle::max_value            8                       # Number of insts issued each cycle
system.cpu.iq.issued_per_cycle::total         7753592                       # Number of insts issued each cycle
system.cpu.iq.rate                           1.989545                       # Inst issue rate
system.cpu.iq.vec_alu_accesses                      0                       # Number of vector alu accesses
system.cpu.iq.vec_inst_queue_reads                  0                       # Number of vector instruction queue reads
system.cpu.iq.vec_inst_queue_wakeup_accesses            0                       # Number of vector instruction queue wakeup accesses
system.cpu.iq.vec_inst_queue_writes                 0                       # Number of vector instruction queue writes
system.cpu.memDep0.conflictingLoads             16536                       # Number of conflicting loads.
system.cpu.memDep0.conflictingStores             8442                       # Number of conflicting stores.
system.cpu.memDep0.insertedLoads              1104769                       # Number of loads inserted to the mem dependence unit.
system.cpu.memDep0.insertedStores              520194                       # Number of stores inserted to the mem dependence unit.
system.cpu.memDep1.conflictingLoads             16438                       # Number of conflicting loads.
system.cpu.memDep1.conflictingStores             8297                       # Number of conflicting stores.
system.cpu.memDep1.insertedLoads              1107262                       # Number of loads inserted to the mem dependence unit.
system.cpu.memDep1.insertedStores              520603                       # Number of stores inserted to the mem dependence unit.
system.cpu.misc_regfile_reads                 6361596                       # number of misc regfile reads
system.cpu.misc_regfile_writes                   1584                       # number of misc regfile writes
system.cpu.numCycles                          7950226                       # number of cpu cycles simulated
system.cpu.numWorkItemsCompleted                    0                       # number of work items this cpu completed
system.cpu.numWorkItemsStarted                      0                       # number of work items this cpu started
system.cpu.timesIdled                            4510                       # Number of times that the entire CPU went into an idle state and unscheduled itself
system.cpu.workload0.numSyscalls                  117                       # Number of system calls
system.cpu.workload1.numSyscalls                  117                       # Number of system calls
system.membus.snoop_filter.hit_multi_requests            0                       # Number of requests hitting in the snoop filter with multiple (>1) holders of the requested data.
system.membus.snoop_filter.hit_multi_snoops            0                       # Number of snoops hitting in the snoop filter with multiple (>1) holders of the requested data.
system.membus.snoop_filter.hit_single_requests         1268                       # Number of requests hitting in the snoop filter with a single holder of the requested data.
system.membus.snoop_filter.hit_single_snoops            0                       # Number of snoops hitting in the snoop filter with a single holder of the requested data.
system.membus.snoop_filter.tot_requests         50565                       # Total number of requests made to the snoop filter.
system.membus.snoop_filter.tot_snoops               0                       # Total number of snoops made to the snoop filter.
system.tol2bus.snoop_filter.hit_multi_requests          132                       # Number of requests hitting in the snoop filter with multiple (>1) holders of the requested data.
system.tol2bus.snoop_filter.hit_multi_snoops            0                       # Number of snoops hitting in the snoop filter with multiple (>1) holders of the requested data.
system.tol2bus.snoop_filter.hit_single_requests       121864                       # Number of requests hitting in the snoop filter with a single holder of the requested data.
system.tol2bus.snoop_filter.hit_single_snoops           27                       # Number of snoops hitting in the snoop filter with a single holder of the requested data.
system.tol2bus.snoop_filter.tot_requests       244468                       # Total number of requests made to the snoop filter.
system.tol2bus.snoop_filter.tot_snoops             27                       # Total number of snoops made to the snoop filter.
sim_insts                                     7620474                       # Number of instructions simulated
sim_ops                                      13690844                       # Number of ops (including micro ops) simulated
host_inst_rate                                 184405                       # Simulator instruction rate (inst/s)
host_op_rate                                   331300                       # Simulator op (including micro ops) rate (op/s)
system.clk_domain.clock                          1000                       # Clock period in ticks
system.cpu.branchPred.lookups                 1829195                       # Number of BP lookups
system.cpu.branchPred.condPredicted           1465764                       # Number of conditional branches predicted
system.cpu.branchPred.condIncorrect             84893                       # Number of conditional branches incorrect
system.cpu.branchPred.BTBLookups               842064                       # Number of BTB lookups
system.cpu.branchPred.BTBHits                  794707                       # Number of BTB hits
system.cpu.branchPred.BTBHitPct             94.376081                       # BTB Hit Percentage
system.cpu.branchPred.RASUsed                   80502                       # Number of times the RAS was used to get a target.
system.cpu.branchPred.RASIncorrect                125                       # Number of incorrect RAS predictions.
system.cpu.branchPred.indirectLookups           76403                       # Number of indirect predictor lookups.
system.cpu.branchPred.indirectHits              45223                       # Number of indirect target hits.
system.cpu.branchPred.indirectMisses            31180                       # Number of indirect misses.
system.cpu.branchPred.indirectMispredicted         6080                       # Number of mispredicted indirect branches.
system.cpu.branchPred.power_state.pwrStateResidencyTicks::UNDEFINED   3975112500                       # Cumulative time (in ticks) in various power states
system.cpu.commit.commitSquashedInsts         2770024                       # The number of squashed insts skipped by commit
system.cpu.commit.commitNonSpecStalls            2646                       # The number of times commit has been forced to stall to communicate backwards
system.cpu.commit.branchMispredicts             67242                       # The number of times a branch was mispredicted
system.cpu.commit.numCommittedDist::samples      7732836                       # Number of insts commited each cycle
system.cpu.commit.numCommittedDist::mean     1.770482                       # Number of insts commited each cycle
system.cpu.commit.numCommittedDist::stdev     2.687834                       # Number of insts commited each cycle
system.cpu.commit.numCommittedDist::underflows            0      0.00%      0.00% # Number of insts commited each cycle
system.cpu.commit.numCommittedDist::0         4386325     56.72%     56.72% # Number of insts commited each cycle
system.cpu.commit.numCommittedDist::1          790669     10.22%     66.95% # Number of insts commited each cycle
system.cpu.commit.numCommittedDist::2          321409      4.16%     71.10% # Number of insts commited each cycle
system.cpu.commit.numCommittedDist::3          806475     10.43%     81.53% # Number of insts commited each cycle
system.cpu.commit.numCommittedDist::4          186276      2.41%     83.94% # Number of insts commited each cycle
system.cpu.commit.numCommittedDist::5          118223      1.53%     85.47% # Number of insts commited each cycle
system.cpu.commit.numCommittedDist::6          111167      1.44%     86.91% # Number of insts commited each cycle
system.cpu.commit.numCommittedDist::7          263625      3.41%     90.32% # Number of insts commited each cycle
system.cpu.commit.numCommittedDist::8          748667      9.68%    100.00% # Number of insts commited each cycle
system.cpu.commit.numCommittedDist::overflows            0      0.00%    100.00% # Number of insts commited each cycle
system.cpu.commit.numCommittedDist::min_value            0                       # Number of insts commited each cycle
system.cpu.commit.numCommittedDist::max_value            8                       # Number of insts commited each cycle
system.cpu.commit.numCommittedDist::total      7732836                       # Number of insts commited each cycle
system.cpu.commit.instsCommitted::0           3810237                       # Number of instructions committed
system.cpu.commit.instsCommitted::1           3810237                       # Number of instructions committed
system.cpu.commit.instsCommitted::total       7620474                       # Number of instructions committed
system.cpu.commit.opsCommitted::0             6845422                       # Number of ops (including micro ops) committed
system.cpu.commit.opsCommitted::1             6845422                       # Number of ops (including micro ops) committed
system.cpu.commit.opsCommitted::total        13690844                       # Number of ops (including micro ops) committed
system.cpu.commit.memRefs::0                  1310433                       # Number of memory references committed
system.cpu.commit.memRefs::1                  1310433                       # Number of memory references committed
system.cpu.commit.memRefs::total              2620866                       # Number of memory references committed
system.cpu.commit.loads::0                     905312                       # Number of loads committed
system.cpu.commit.loads::1                     905312                       # Number of loads committed
system.cpu.commit.loads::total                1810624                       # Number of loads committed
system.cpu.commit.amos::0                           0                       # Number of atomic instructions committed
system.cpu.commit.amos::1                           0                       # Number of atomic instructions committed
system.cpu.commit.amos::total                       0                       # Number of atomic instructions committed
system.cpu.commit.membars::0                      354                       # Number of memory barriers committed
system.cpu.commit.membars::1                      354                       # Number of memory barriers committed
system.cpu.commit.membars::total                  708                       # Number of memory barriers committed
system.cpu.commit.branches::0                  679817                       # Number of branches committed
system.cpu.commit.branches::1                  679817                       # Number of branches committed
system.cpu.commit.branches::total             1359634                       # Number of branches committed
system.cpu.commit.vector::0                         0                       # Number of committed Vector instructions.
system.cpu.commit.vector::1                         0                       # Number of committed Vector instructions.
system.cpu.commit.vector::total                     0                       # Number of committed Vector instructions.
system.cpu.commit.floating::0                  132636                       # Number of committed floating point instructions.
system.cpu.commit.floating::1                  132636                       # Number of committed floating point instructions.
system.cpu.commit.floating::total              265272                       # Number of committed floating point instructions.
system.cpu.commit.integer::0                  6711682                       # Number of committed integer instructions.
system.cpu.commit.integer::1                  6711682                       # Number of committed integer instructions.
system.cpu.commit.integer::total             13423364                       # Number of committed integer instructions.
system.cpu.commit.functionCalls::0              32403                       # Number of function calls committed.
system.cpu.commit.functionCalls::1              32403                       # Number of function calls committed.
system.cpu.commit.functionCalls::total          64806                       # Number of function calls committed.
system.cpu.commit.committedInstType_0::No_OpClass        65412      0.96%      0.96% # Class of committed instruction
system.cpu.commit.committedInstType_0::IntAlu      5345366     78.09%     79.04% # Class of committed instruction
system.cpu.commit.committedInstType_0::IntMult          484      0.01%     79.05% # Class of committed instruction
system.cpu.commit.committedInstType_0::IntDiv        46057      0.67%     79.72% # Class of committed instruction
system.cpu.commit.committedInstType_0::FloatAdd         7566      0.11%     79.83% # Class of committed instruction
system.cpu.commit.committedInstType_0::FloatCmp            0      0.00%     79.83% # Class of committed instruction
system.cpu.commit.committedInstType_0::FloatCvt         1408      0.02%     79.85% # Class of committed instruction
system.cpu.commit.committedInstType_0::FloatMult            0      0.00%     79.85% # Class of committed instruction
system.cpu.commit.committedInstType_0::FloatMultAcc            0      0.00%     79.85% # Class of committed instruction
system.cpu.commit.committedInstType_0::FloatDiv            0      0.00%     79.85% # Class of committed instruction
system.cpu.commit.committedInstType_0::FloatMisc            0      0.00%     79.85% # Class of committed instruction
system.cpu.commit.committedInstType_0::FloatSqrt            0      0.00%     79.85% # Class of committed instruction
system.cpu.commit.committedInstType_0::SimdAdd         7892      0.12%     79.97% # Class of committed instruction
system.cpu.commit.committedInstType_0::SimdAddAcc            0      0.00%     79.97% # Class of committed instruction
system.cpu.commit.committedInstType_0::SimdAlu        20535      0.30%     80.27% # Class of committed instruction
system.cpu.commit.committedInstType_0::SimdCmp          174      0.00%     80.27% # Class of committed instruction
system.cpu.commit.committedInstType_0::SimdCvt        18930      0.28%     80.55% # Class of committed instruction
system.cpu.commit.committedInstType_0::SimdMisc        19572      0.29%     80.83% # Class of committed instruction
system.cpu.commit.committedInstType_0::SimdMult            0      0.00%     80.83% # Class of committed instruction
system.cpu.commit.committedInstType_0::SimdMultAcc            0      0.00%     80.83% # Class of committed instruction
system.cpu.commit.committedInstType_0::SimdShift         1377      0.02%     80.85% # Class of committed instruction
system.cpu.commit.committedInstType_0::SimdShiftAcc            0      0.00%     80.85% # Class of committed instruction
system.cpu.commit.committedInstType_0::SimdDiv            0      0.00%     80.85% # Class of committed instruction
system.cpu.commit.committedInstType_0::SimdSqrt            0      0.00%     80.85% # Class of committed instruction
system.cpu.commit.committedInstType_0::SimdFloatAdd            5      0.00%     80.85% # Class of committed instruction
system.cpu.commit.committedInstType_0::SimdFloatAlu            0      0.00%     80.85% # Class of committed instruction
system.cpu.commit.committedInstType_0::SimdFloatCmp            0      0.00%     80.85% # Class of committed instruction
system.cpu.commit.committedInstType_0::SimdFloatCvt          157      0.00%     80.86% # Class of committed instruction
system.cpu.commit.committedInstType_0::SimdFloatDiv            1      0.00%     80.86% # Class of committed instruction
system.cpu.commit.committedInstType_0::SimdFloatMisc            0      0.00%     80.86% # Class of committed instruction
system.cpu.commit.committedInstType_0::SimdFloatMult           52      0.00%     80.86% # Class of committed instruction
system.cpu.commit.committedInstType_0::SimdFloatMultAcc            0      0.00%     80.86% # Class of committed instruction
system.cpu.commit.committedInstType_0::SimdFloatSqrt            1      0.00%     80.86% # Class of committed instruction
system.cpu.commit.committedInstType_0::SimdReduceAdd            0      0.00%     80.86% # Class of committed instruction
system.cpu.commit.committedInstType_0::SimdReduceAlu            0      0.00%     80.86% # Class of committed instruction
system.cpu.commit.committedInstType_0::SimdReduceCmp            0      0.00%     80.86% # Class of committed instruction
system.cpu.commit.committedInstType_0::SimdFloatReduceAdd            0      0.00%     80.86% # Class of committed instruction
system.cpu.commit.committedInstType_0::SimdFloatReduceCmp            0      0.00%     80.86% # Class of committed instruction
system.cpu.commit.committedInstType_0::SimdAes            0      0.00%     80.86% # Class of committed instruction
system.cpu.commit.committedInstType_0::SimdAesMix            0      0.00%     80.86% # Class of committed instruction
system.cpu.commit.committedInstType_0::SimdSha1Hash            0      0.00%     80.86% # Class of committed instruction
system.cpu.commit.committedInstType_0::SimdSha1Hash2            0      0.00%     80.86% # Class of committed instruction
system.cpu.commit.committedInstType_0::SimdSha256Hash            0      0.00%     80.86% # Class of committed instruction
system.cpu.commit.committedInstType_0::SimdSha256Hash2            0      0.00%     80.86% # Class of committed instruction
system.cpu.commit.committedInstType_0::SimdShaSigma2            0      0.00%     80.86% # Class of committed instruction
system.cpu.commit.committedInstType_0::SimdShaSigma3            0      0.00%     80.86% # Class of committed instruction
system.cpu.commit.committedInstType_0::SimdPredAlu            0      0.00%     80.86% # Class of committed instruction
system.cpu.commit.committedInstType_0::MemRead       878591     12.83%     93.69% # Class of committed instruction
system.cpu.commit.committedInstType_0::MemWrite       380675      5.56%     99.25% # Class of committed instruction
system.cpu.commit.committedInstType_0::FloatMemRead        26721      0.39%     99.64% # Class of committed instruction
system.cpu.commit.committedInstType_0::FloatMemWrite        24446      0.36%    100.00% # Class of committed instruction
system.cpu.commit.committedInstType_0::IprAccess            0      0.00%    100.00% # Class of committed instruction
system.cpu.commit.committedInstType_0::InstPrefetch            0      0.00%    100.00% # Class of committed instruction
system.cpu.commit.committedInstType_0::total      6845422                       # Class of committed instruction
system.cpu.commit.committedInstType_1::No_OpClass        65412      0.96%      0.96% # Class of committed instruction
system.cpu.commit.committedInstType_1::IntAlu      5345366     78.09%     79.04% # Class of committed instruction
system.cpu.commit.committedInstType_1::IntMult          484      0.01%     79.05% # Class of committed instruction
system.cpu.commit.committedInstType_1::IntDiv        46057      0.67%     79.72% # Class of committed instruction
system.cpu.commit.committedInstType_1::FloatAdd         7566      0.11%     79.83% # Class of committed instruction
system.cpu.commit.committedInstType_1::FloatCmp            0      0.00%     79.83% # Class of committed instruction
system.cpu.commit.committedInstType_1::FloatCvt         1408      0.02%     79.85% # Class of committed instruction
system.cpu.commit.committedInstType_1::FloatMult            0      0.00%     79.85% # Class of committed instruction
system.cpu.commit.committedInstType_1::FloatMultAcc            0      0.00%     79.85% # Class of committed instruction
system.cpu.commit.committedInstType_1::FloatDiv            0      0.00%     79.85% # Class of committed instruction
system.cpu.commit.committedInstType_1::FloatMisc            0      0.00%     79.85% # Class of committed instruction
system.cpu.commit.committedInstType_1::FloatSqrt            0      0.00%     79.85% # Class of committed instruction
system.cpu.commit.committedInstType_1::SimdAdd         7892      0.12%     79.97% # Class of committed instruction
system.cpu.commit.committedInstType_1::SimdAddAcc            0      0.00%     79.97% # Class of committed instruction
system.cpu.commit.committedInstType_1::SimdAlu        20535      0.30%     80.27% # Class of committed instruction
system.cpu.commit.committedInstType_1::SimdCmp          174      0.00%     80.27% # Class of committed instruction
system.cpu.commit.committedInstType_1::SimdCvt        18930      0.28%     80.55% # Class of committed instruction
system.cpu.commit.committedInstType_1::SimdMisc        19572      0.29%     80.83% # Class of committed instruction
system.cpu.commit.committedInstType_1::SimdMult            0      0.00%     80.83% # Class of committed instruction
system.cpu.commit.committedInstType_1::SimdMultAcc            0      0.00%     80.83% # Class of committed instruction
system.cpu.commit.committedInstType_1::SimdShift         1377      0.02%     80.85% # Class of committed instruction
system.cpu.commit.committedInstType_1::SimdShiftAcc            0      0.00%     80.85% # Class of committed instruction
system.cpu.commit.committedInstType_1::SimdDiv            0      0.00%     80.85% # Class of committed instruction
system.cpu.commit.committedInstType_1::SimdSqrt            0      0.00%     80.85% # Class of committed instruction
system.cpu.commit.committedInstType_1::SimdFloatAdd            5      0.00%     80.85% # Class of committed instruction
system.cpu.commit.committedInstType_1::SimdFloatAlu            0      0.00%     80.85% # Class of committed instruction
system.cpu.commit.committedInstType_1::SimdFloatCmp            0      0.00%     80.85% # Class of committed instruction
system.cpu.commit.committedInstType_1::SimdFloatCvt          157      0.00%     80.86% # Class of committed instruction
system.cpu.commit.committedInstType_1::SimdFloatDiv            1      0.00%     80.86% # Class of committed instruction
system.cpu.commit.committedInstType_1::SimdFloatMisc            0      0.00%     80.86% # Class of committed instruction
system.cpu.commit.committedInstType_1::SimdFloatMult           52      0.00%     80.86% # Class of committed instruction
system.cpu.commit.committedInstType_1::SimdFloatMultAcc            0      0.00%     80.86% # Class of committed instruction
system.cpu.commit.committedInstType_1::SimdFloatSqrt            1      0.00%     80.86% # Class of committed instruction
system.cpu.commit.committedInstType_1::SimdReduceAdd            0      0.00%     80.86% # Class of committed instruction
system.cpu.commit.committedInstType_1::SimdReduceAlu            0      0.00%     80.86% # Class of committed instruction
system.cpu.commit.committedInstType_1::SimdReduceCmp            0      0.00%     80.86% # Class of committed instruction
system.cpu.commit.committedInstType_1::SimdFloatReduceAdd            0      0.00%     80.86% # Class of committed instruction
system.cpu.commit.committedInstType_1::SimdFloatReduceCmp            0      0.00%     80.86% # Class of committed instruction
system.cpu.commit.committedInstType_1::SimdAes            0      0.00%     80.86% # Class of committed instruction
system.cpu.commit.committedInstType_1::SimdAesMix            0      0.00%     80.86% # Class of committed instruction
system.cpu.commit.committedInstType_1::SimdSha1Hash            0      0.00%     80.86% # Class of committed instruction
system.cpu.commit.committedInstType_1::SimdSha1Hash2            0      0.00%     80.86% # Class of committed instruction
system.cpu.commit.committedInstType_1::SimdSha256Hash            0      0.00%     80.86% # Class of committed instruction
system.cpu.commit.committedInstType_1::SimdSha256Hash2            0      0.00%     80.86% # Class of committed instruction
system.cpu.commit.committedInstType_1::SimdShaSigma2            0      0.00%     80.86% # Class of committed instruction
system.cpu.commit.committedInstType_1::SimdShaSigma3            0      0.00%     80.86% # Class of committed instruction
system.cpu.commit.committedInstType_1::SimdPredAlu            0      0.00%     80.86% # Class of committed instruction
system.cpu.commit.committedInstType_1::MemRead       878591     12.83%     93.69% # Class of committed instruction
system.cpu.commit.committedInstType_1::MemWrite       380675      5.56%     99.25% # Class of committed instruction
system.cpu.commit.committedInstType_1::FloatMemRead        26721      0.39%     99.64% # Class of committed instruction
system.cpu.commit.committedInstType_1::FloatMemWrite        24446      0.36%    100.00% # Class of committed instruction
system.cpu.commit.committedInstType_1::IprAccess            0      0.00%    100.00% # Class of committed instruction
system.cpu.commit.committedInstType_1::InstPrefetch            0      0.00%    100.00% # Class of committed instruction
system.cpu.commit.committedInstType_1::total      6845422                       # Class of committed instruction
system.cpu.commit.committedInstType::total     13690844      0.00%      0.00% # Class of committed instruction
system.cpu.commit.commitEligibleSamples        748667                       # number cycles where commit BW limit reached
system.cpu.dcache.demand_hits::.cpu.data      2512698                       # number of demand (read+write) hits
system.cpu.dcache.demand_hits::total          2512698                       # number of demand (read+write) hits
system.cpu.dcache.overall_hits::.cpu.data      2512698                       # number of overall hits
system.cpu.dcache.overall_hits::total         2512698                       # number of overall hits
system.cpu.dcache.demand_misses::.cpu.data       258865                       # number of demand (read+write) misses
system.cpu.dcache.demand_misses::total         258865                       # number of demand (read+write) misses
system.cpu.dcache.overall_misses::.cpu.data       258865                       # number of overall misses
system.cpu.dcache.overall_misses::total        258865                       # number of overall misses
system.cpu.dcache.demand_miss_latency::.cpu.data  11472714252                       # number of demand (read+write) miss cycles
system.cpu.dcache.demand_miss_latency::total  11472714252                       # number of demand (read+write) miss cycles
system.cpu.dcache.overall_miss_latency::.cpu.data  11472714252                       # number of overall miss cycles
system.cpu.dcache.overall_miss_latency::total  11472714252                       # number of overall miss cycles
system.cpu.dcache.demand_accesses::.cpu.data      2771563                       # number of demand (read+write) accesses
system.cpu.dcache.demand_accesses::total      2771563                       # number of demand (read+write) accesses
system.cpu.dcache.overall_accesses::.cpu.data      2771563                       # number of overall (read+write) accesses
system.cpu.dcache.overall_accesses::total      2771563                       # number of overall (read+write) accesses
system.cpu.dcache.demand_miss_rate::.cpu.data     0.093400                       # miss rate for demand accesses
system.cpu.dcache.demand_miss_rate::total     0.093400                       # miss rate for demand accesses
system.cpu.dcache.overall_miss_rate::.cpu.data     0.093400                       # miss rate for overall accesses
system.cpu.dcache.overall_miss_rate::total     0.093400                       # miss rate for overall accesses
system.cpu.dcache.demand_avg_miss_latency::.cpu.data 44319.294814                       # average overall miss latency
system.cpu.dcache.demand_avg_miss_latency::total 44319.294814                       # average overall miss latency
system.cpu.dcache.overall_avg_miss_latency::.cpu.data 44319.294814                       # average overall miss latency
system.cpu.dcache.overall_avg_miss_latency::total 44319.294814                       # average overall miss latency
system.cpu.dcache.blocked_cycles::no_mshrs           11                       # number of cycles access was blocked
system.cpu.dcache.blocked_cycles::no_targets       847904                       # number of cycles access was blocked
system.cpu.dcache.blocked::no_mshrs                 3                       # number of cycles access was blocked
system.cpu.dcache.blocked::no_targets           11181                       # number of cycles access was blocked
system.cpu.dcache.avg_blocked_cycles::no_mshrs     3.666667                       # average number of cycles each access was blocked
system.cpu.dcache.avg_blocked_cycles::no_targets    75.834362                       # average number of cycles each access was blocked
system.cpu.dcache.writebacks::.writebacks        99873                       # number of writebacks
system.cpu.dcache.writebacks::total             99873                       # number of writebacks
system.cpu.dcache.demand_mshr_hits::.cpu.data       158765                       # number of demand (read+write) MSHR hits
system.cpu.dcache.demand_mshr_hits::total       158765                       # number of demand (read+write) MSHR hits
system.cpu.dcache.overall_mshr_hits::.cpu.data       158765                       # number of overall MSHR hits
system.cpu.dcache.overall_mshr_hits::total       158765                       # number of overall MSHR hits
system.cpu.dcache.demand_mshr_misses::.cpu.data       100100                       # number of demand (read+write) MSHR misses
system.cpu.dcache.demand_mshr_misses::total       100100                       # number of demand (read+write) MSHR misses
system.cpu.dcache.overall_mshr_misses::.cpu.data       100100                       # number of overall MSHR misses
system.cpu.dcache.overall_mshr_misses::total       100100                       # number of overall MSHR misses
system.cpu.dcache.demand_mshr_miss_latency::.cpu.data   3617847752                       # number of demand (read+write) MSHR miss cycles
system.cpu.dcache.demand_mshr_miss_latency::total   3617847752                       # number of demand (read+write) MSHR miss cycles
system.cpu.dcache.overall_mshr_miss_latency::.cpu.data   3617847752                       # number of overall MSHR miss cycles
system.cpu.dcache.overall_mshr_miss_latency::total   3617847752                       # number of overall MSHR miss cycles
system.cpu.dcache.demand_mshr_miss_rate::.cpu.data     0.036117                       # mshr miss rate for demand accesses
system.cpu.dcache.demand_mshr_miss_rate::total     0.036117                       # mshr miss rate for demand accesses
system.cpu.dcache.overall_mshr_miss_rate::.cpu.data     0.036117                       # mshr miss rate for overall accesses
system.cpu.dcache.overall_mshr_miss_rate::total     0.036117                       # mshr miss rate for overall accesses
system.cpu.dcache.demand_avg_mshr_miss_latency::.cpu.data 36142.335185                       # average overall mshr miss latency
system.cpu.dcache.demand_avg_mshr_miss_latency::total 36142.335185                       # average overall mshr miss latency
system.cpu.dcache.overall_avg_mshr_miss_latency::.cpu.data 36142.335185                       # average overall mshr miss latency
system.cpu.dcache.overall_avg_mshr_miss_latency::total 36142.335185                       # average overall mshr miss latency
system.cpu.dcache.replacements                   4009                       # number of replacements
system.cpu.dcache.expired                       95864                       # dead blocks evicted
system.cpu.dcache.ReadReq_hits::.cpu.data      1721690                       # number of ReadReq hits
system.cpu.dcache.ReadReq_hits::total         1721690                       # number of ReadReq hits
system.cpu.dcache.ReadReq_misses::.cpu.data       239505                       # number of ReadReq misses
system.cpu.dcache.ReadReq_misses::total        239505                       # number of ReadReq misses
system.cpu.dcache.ReadReq_miss_latency::.cpu.data  10618139000                       # number of ReadReq miss cycles
system.cpu.dcache.ReadReq_miss_latency::total  10618139000                       # number of ReadReq miss cycles
system.cpu.dcache.ReadReq_accesses::.cpu.data      1961195                       # number of ReadReq accesses(hits+misses)
system.cpu.dcache.ReadReq_accesses::total      1961195                       # number of ReadReq accesses(hits+misses)
system.cpu.dcache.ReadReq_miss_rate::.cpu.data     0.122122                       # miss rate for ReadReq accesses
system.cpu.dcache.ReadReq_miss_rate::total     0.122122                       # miss rate for ReadReq accesses
system.cpu.dcache.ReadReq_avg_miss_latency::.cpu.data 44333.684057                       # average ReadReq miss latency
system.cpu.dcache.ReadReq_avg_miss_latency::total 44333.684057                       # average ReadReq miss latency
system.cpu.dcache.ReadReq_mshr_hits::.cpu.data       158716                       # number of ReadReq MSHR hits
system.cpu.dcache.ReadReq_mshr_hits::total       158716                       # number of ReadReq MSHR hits
system.cpu.dcache.ReadReq_mshr_misses::.cpu.data        80789                       # number of ReadReq MSHR misses
system.cpu.dcache.ReadReq_mshr_misses::total        80789                       # number of ReadReq MSHR misses
system.cpu.dcache.ReadReq_mshr_miss_latency::.cpu.data   2783380500                       # number of ReadReq MSHR miss cycles
system.cpu.dcache.ReadReq_mshr_miss_latency::total   2783380500                       # number of ReadReq MSHR miss cycles
system.cpu.dcache.ReadReq_mshr_miss_rate::.cpu.data     0.041194                       # mshr miss rate for ReadReq accesses
system.cpu.dcache.ReadReq_mshr_miss_rate::total     0.041194                       # mshr miss rate for ReadReq accesses
system.cpu.dcache.ReadReq_avg_mshr_miss_latency::.cpu.data 34452.468777                       # average ReadReq mshr miss latency
system.cpu.dcache.ReadReq_avg_mshr_miss_latency::total 34452.468777                       # average ReadReq mshr miss latency
system.cpu.dcache.WriteReq_hits::.cpu.data       791008                       # number of WriteReq hits
system.cpu.dcache.WriteReq_hits::total         791008                       # number of WriteReq hits
system.cpu.dcache.WriteReq_misses::.cpu.data        19360                       # number of WriteReq misses
system.cpu.dcache.WriteReq_misses::total        19360                       # number of WriteReq misses
system.cpu.dcache.WriteReq_miss_latency::.cpu.data    854575252                       # number of WriteReq miss cycles
system.cpu.dcache.WriteReq_miss_latency::total    854575252                       # number of WriteReq miss cycles
system.cpu.dcache.WriteReq_accesses::.cpu.data       810368                       # number of WriteReq accesses(hits+misses)
system.cpu.dcache.WriteReq_accesses::total       810368                       # number of WriteReq accesses(hits+misses)
system.cpu.dcache.WriteReq_miss_rate::.cpu.data     0.023890                       # miss rate for WriteReq accesses
system.cpu.dcache.WriteReq_miss_rate::total     0.023890                       # miss rate for WriteReq accesses
system.cpu.dcache.WriteReq_avg_miss_latency::.cpu.data 44141.283678                       # average WriteReq miss latency
system.cpu.dcache.WriteReq_avg_miss_latency::total 44141.283678                       # average WriteReq miss latency
system.cpu.dcache.WriteReq_mshr_hits::.cpu.data           49                       # number of WriteReq MSHR hits
system.cpu.dcache.WriteReq_mshr_hits::total           49                       # number of WriteReq MSHR hits
system.cpu.dcache.WriteReq_mshr_misses::.cpu.data        19311                       # number of WriteReq MSHR misses
system.cpu.dcache.WriteReq_mshr_misses::total        19311                       # number of WriteReq MSHR misses
system.cpu.dcache.WriteReq_mshr_miss_latency::.cpu.data    834467252                       # number of WriteReq MSHR miss cycles
system.cpu.dcache.WriteReq_mshr_miss_latency::total    834467252                       # number of WriteReq MSHR miss cycles
system.cpu.dcache.WriteReq_mshr_miss_rate::.cpu.data     0.023830                       # mshr miss rate for WriteReq accesses
system.cpu.dcache.WriteReq_mshr_miss_rate::total     0.023830                       # mshr miss rate for WriteReq accesses
system.cpu.dcache.WriteReq_avg_mshr_miss_latency::.cpu.data 43212.016571                       # average WriteReq mshr miss latency
system.cpu.dcache.WriteReq_avg_mshr_miss_latency::total 43212.016571                       # average WriteReq mshr miss latency
system.cpu.dcache.power_state.pwrStateResidencyTicks::UNDEFINED   3975112500                       # Cumulative time (in ticks) in various power states
system.cpu.dcache.tags.tagsinuse           181.833695                       # Cycle average of tags in use
system.cpu.dcache.tags.total_refs             2612800                       # Total number of references to valid blocks.
system.cpu.dcache.tags.sampled_refs            100091                       # Sample count of references to valid blocks.
system.cpu.dcache.tags.avg_refs             26.104245                       # Average number of references to valid blocks.
system.cpu.dcache.tags.warmup_cycle            191500                       # Cycle when the warmup percentage was hit.
system.cpu.dcache.tags.occ_blocks::.cpu.data   181.833695                       # Average occupied blocks per requestor
system.cpu.dcache.tags.occ_percent::.cpu.data     0.355144                       # Average percentage of cache occupancy
system.cpu.dcache.tags.occ_percent::total     0.355144                       # Average percentage of cache occupancy
system.cpu.dcache.tags.occ_task_id_blocks::1024          218                       # Occupied blocks per task id
system.cpu.dcache.tags.age_task_id_blocks_1024::0          198                       # Occupied blocks per task id
system.cpu.dcache.tags.age_task_id_blocks_1024::1           20                       # Occupied blocks per task id
system.cpu.dcache.tags.occ_task_id_percent::1024     0.425781                       # Percentage of cache occupancy per task id
system.cpu.dcache.tags.tag_accesses          22272595                       # Number of tag accesses
system.cpu.dcache.tags.data_accesses         22272595                       # Number of data accesses
system.cpu.dcache.tags.power_state.pwrStateResidencyTicks::UNDEFINED   3975112500                       # Cumulative time (in ticks) in various power states
system.cpu.decode.idleCycles                  2554592                       # Number of cycles decode is idle
system.cpu.decode.blockedCycles               7590838                       # Number of cycles decode is blocked
system.cpu.decode.runCycles                   4005786                       # Number of cycles decode is running
system.cpu.decode.unblockCycles               1287351                       # Number of cycles decode is unblocking
system.cpu.decode.squashCycles                  68617                       # Number of cycles decode is squashing
system.cpu.decode.branchResolved               752648                       # Number of times decode resolved a  branch
system.cpu.decode.branchMispred                 18332                       # Number of times decode detected a branch misprediction
system.cpu.decode.decodedInsts               17001235                       # Number of instructions handled by decode
system.cpu.decode.squashedInsts                336746                       # Number of squashed instructions handled by decode
system.cpu.dtb.rdAccesses                     2072395                       # TLB accesses on read requests
system.cpu.dtb.wrAccesses                      938877                       # TLB accesses on write requests
system.cpu.dtb.rdMisses                        170879                       # TLB misses on read requests
system.cpu.dtb.wrMisses                          9915                       # TLB misses on write requests
system.cpu.dtb.walker.power_state.pwrStateResidencyTicks::UNDEFINED   3975112500                       # Cumulative time (in ticks) in various power states
system.cpu.dtb_walker_cache.blocked_cycles::no_mshrs            0                       # number of cycles access was blocked
system.cpu.dtb_walker_cache.blocked_cycles::no_targets            0                       # number of cycles access was blocked
system.cpu.dtb_walker_cache.blocked::no_mshrs            0                       # number of cycles access was blocked
system.cpu.dtb_walker_cache.blocked::no_targets            0                       # number of cycles access was blocked
system.cpu.dtb_walker_cache.avg_blocked_cycles::no_mshrs          nan                       # average number of cycles each access was blocked
system.cpu.dtb_walker_cache.avg_blocked_cycles::no_targets          nan                       # average number of cycles each access was blocked
system.cpu.dtb_walker_cache.replacements            0                       # number of replacements
system.cpu.dtb_walker_cache.expired                 0                       # dead blocks evicted
system.cpu.dtb_walker_cache.power_state.pwrStateResidencyTicks::UNDEFINED   3975112500                       # Cumulative time (in ticks) in various power states
system.cpu.dtb_walker_cache.tags.tagsinuse            0                       # Cycle average of tags in use
system.cpu.dtb_walker_cache.tags.total_refs            0                       # Total number of references to valid blocks.
system.cpu.dtb_walker_cache.tags.sampled_refs            0                       # Sample count of references to valid blocks.
system.cpu.dtb_walker_cache.tags.avg_refs          nan                       # Average number of references to valid blocks.
system.cpu.dtb_walker_cache.tags.warmup_cycle            0                       # Cycle when the warmup percentage was hit.
system.cpu.dtb_walker_cache.tags.tag_accesses            0                       # Number of tag accesses
system.cpu.dtb_walker_cache.tags.data_accesses            0                       # Number of data accesses
system.cpu.dtb_walker_cache.tags.power_state.pwrStateResidencyTicks::UNDEFINED   3975112500                       # Cumulative time (in ticks) in various power states
system.cpu.fetch.icacheStallCycles              70503                       # Number of cycles fetch is stalled on an Icache miss
system.cpu.fetch.insts                       10301418                       # Number of instructions fetch has processed
system.cpu.fetch.branches                     1829195                       # Number of branches that fetch encountered
system.cpu.fetch.predictedBranches             920432                       # Number of branches that fetch has predicted taken
system.cpu.fetch.cycles                       7115009                       # Number of cycles fetch has run and was not squashing or blocked
system.cpu.fetch.squashCycles                   86698                       # Number of cycles fetch has spent squashing
system.cpu.fetch.tlbCycles                       5045                       # Number of cycles fetch has spent waiting for tlb
system.cpu.fetch.miscStallCycles                  939                       # Number of cycles fetch has spent waiting on interrupts,or bad addresses, or out of MSHRs
system.cpu.fetch.cacheLines                   3267049                       # Number of cache lines fetched
system.cpu.fetch.icacheSquashes                  8868                       # Number of outstanding Icache misses that were squashed
system.cpu.fetch.tlbSquashes                     3701                       # Number of outstanding ITLB misses that were squashed
system.cpu.fetch.SMTDist::samples             7753592                       # Number of Cycles each Thread Fetched
system.cpu.fetch.SMTDist::mean               0.391245                       # Number of Cycles each Thread Fetched
system.cpu.fetch.SMTDist::stdev              0.619001                       # Number of Cycles each Thread Fetched
system.cpu.fetch.SMTDist::underflows                0      0.00%      0.00% # Number of Cycles each Thread Fetched
system.cpu.fetch.SMTDist::-1                   562096      7.25%      7.25% # Number of Cycles each Thread Fetched
system.cpu.fetch.SMTDist::0                   3595849     46.38%     53.63% # Number of Cycles each Thread Fetched
system.cpu.fetch.SMTDist::1                   3595647     46.37%    100.00% # Number of Cycles each Thread Fetched
system.cpu.fetch.SMTDist::2                         0      0.00%    100.00% # Number of Cycles each Thread Fetched
system.cpu.fetch.SMTDist::overflows                 0      0.00%    100.00% # Number of Cycles each Thread Fetched
system.cpu.fetch.SMTDist::min_value                -1                       # Number of Cycles each Thread Fetched
system.cpu.fetch.SMTDist::max_value                 1                       # Number of Cycles each Thread Fetched
system.cpu.fetch.SMTDist::total               7753592                       # Number of Cycles each Thread Fetched
system.cpu.fetch.nisnDist::samples            7753592                       # Number of instructions fetched each cycle (Total)
system.cpu.fetch.nisnDist::mean              2.394315                       # Number of instructions fetched each cycle (Total)
system.cpu.fetch.nisnDist::stdev             2.877602                       # Number of instructions fetched each cycle (Total)
system.cpu.fetch.nisnDist::underflows               0      0.00%      0.00% # Number of instructions fetched each cycle (Total)
system.cpu.fetch.nisnDist::0                  3903787     50.35%     50.35% # Number of instructions fetched each cycle (Total)
system.cpu.fetch.nisnDist::1                   325027      4.19%     54.54% # Number of instructions fetched each cycle (Total)
system.cpu.fetch.nisnDist::2                   295988      3.82%     58.36% # Number of instructions fetched each cycle (Total)
system.cpu.fetch.nisnDist::3                   610112      7.87%     66.23% # Number of instructions fetched each cycle (Total)
system.cpu.fetch.nisnDist::4                   606103      7.82%     74.04% # Number of instructions fetched each cycle (Total)
system.cpu.fetch.nisnDist::5                   520807      6.72%     80.76% # Number of instructions fetched each cycle (Total)
system.cpu.fetch.nisnDist::6                   321771      4.15%     84.91% # Number of instructions fetched each cycle (Total)
system.cpu.fetch.nisnDist::7                   501846      6.47%     91.38% # Number of instructions fetched each cycle (Total)
system.cpu.fetch.nisnDist::8                   668151      8.62%    100.00% # Number of instructions fetched each cycle (Total)
system.cpu.fetch.nisnDist::overflows                0      0.00%    100.00% # Number of instructions fetched each cycle (Total)
system.cpu.fetch.nisnDist::min_value                0                       # Number of instructions fetched each cycle (Total)
system.cpu.fetch.nisnDist::max_value                8                       # Number of instructions fetched each cycle (Total)
system.cpu.fetch.nisnDist::total              7753592                       # Number of instructions fetched each cycle (Total)
system.cpu.fetch.branchRate                  0.230081                       # Number of branch fetches per cycle
system.cpu.fetch.rate                        1.295739                       # Number of inst fetches per cycle
system.cpu.icache.demand_hits::.cpu.inst      3241616                       # number of demand (read+write) hits
system.cpu.icache.demand_hits::total          3241616                       # number of demand (read+write) hits
system.cpu.icache.overall_hits::.cpu.inst      3241616                       # number of overall hits
system.cpu.icache.overall_hits::total         3241616                       # number of overall hits
system.cpu.icache.demand_misses::.cpu.inst        25430                       # number of demand (read+write) misses
system.cpu.icache.demand_misses::total          25430                       # number of demand (read+write) misses
system.cpu.icache.overall_misses::.cpu.inst        25430                       # number of overall misses
system.cpu.icache.overall_misses::total         25430                       # number of overall misses
system.cpu.icache.demand_miss_latency::.cpu.inst    838840500                       # number of demand (read+write) miss cycles
system.cpu.icache.demand_miss_latency::total    838840500                       # number of demand (read+write) miss cycles
system.cpu.icache.overall_miss_latency::.cpu.inst    838840500                       # number of overall miss cycles
system.cpu.icache.overall_miss_latency::total    838840500                       # number of overall miss cycles
system.cpu.icache.demand_accesses::.cpu.inst      3267046                       # number of demand (read+write) accesses
[...]
system.mem_ctrls1.dram.perBankWrBursts::6            3                       # Per bank write bursts
system.mem_ctrls1.dram.perBankWrBursts::7           26                       # Per bank write bursts
system.mem_ctrls1.dram.perBankWrBursts::8            1                       # Per bank write bursts
system.mem_ctrls1.dram.perBankWrBursts::9            6                       # Per bank write bursts
system.mem_ctrls1.dram.perBankWrBursts::10            1                       # Per bank write bursts
system.mem_ctrls1.dram.perBankWrBursts::11           11                       # Per bank write bursts
system.mem_ctrls1.dram.perBankWrBursts::12            0                       # Per bank write bursts
system.mem_ctrls1.dram.perBankWrBursts::13            0                       # Per bank write bursts
system.mem_ctrls1.dram.perBankWrBursts::14            0                       # Per bank write bursts
system.mem_ctrls1.dram.perBankWrBursts::15            0                       # Per bank write bursts
system.mem_ctrls1.dram.perBankWrBursts::16            0                       # Per bank write bursts
system.mem_ctrls1.dram.perBankWrBursts::17            5                       # Per bank write bursts
system.mem_ctrls1.dram.perBankWrBursts::18            0                       # Per bank write bursts
system.mem_ctrls1.dram.perBankWrBursts::19            7                       # Per bank write bursts
system.mem_ctrls1.dram.perBankWrBursts::20            1                       # Per bank write bursts
system.mem_ctrls1.dram.perBankWrBursts::21           17                       # Per bank write bursts
system.mem_ctrls1.dram.perBankWrBursts::22            0                       # Per bank write bursts
system.mem_ctrls1.dram.perBankWrBursts::23           15                       # Per bank write bursts
system.mem_ctrls1.dram.perBankWrBursts::24            2                       # Per bank write bursts
system.mem_ctrls1.dram.perBankWrBursts::25            1                       # Per bank write bursts
system.mem_ctrls1.dram.perBankWrBursts::26            0                       # Per bank write bursts
system.mem_ctrls1.dram.perBankWrBursts::27           10                       # Per bank write bursts
system.mem_ctrls1.dram.perBankWrBursts::28            1                       # Per bank write bursts
system.mem_ctrls1.dram.perBankWrBursts::29            0                       # Per bank write bursts
system.mem_ctrls1.dram.perBankWrBursts::30            0                       # Per bank write bursts
system.mem_ctrls1.dram.perBankWrBursts::31            0                       # Per bank write bursts
system.mem_ctrls1.dram.totQLat              256187650                       # Total ticks spent queuing
system.mem_ctrls1.dram.totBusLat             81973864                       # Total ticks spent in databus transfers
system.mem_ctrls1.dram.totMemAccLat         686525834                       # Total ticks spent from burst creation until serviced by the DRAM
system.mem_ctrls1.dram.avgQLat               10413.29                       # Average queueing delay per DRAM burst
system.mem_ctrls1.dram.avgBusLat              3332.00                       # Average bus latency per DRAM burst
system.mem_ctrls1.dram.avgMemAccLat          27905.29                       # Average memory access latency per DRAM burst
system.mem_ctrls1.dram.readRowHits              19370                       # Number of row buffer hits during reads
system.mem_ctrls1.dram.writeRowHits                95                       # Number of row buffer hits during writes
system.mem_ctrls1.dram.readRowHitRate           78.73                       # Row buffer hit rate for reads
system.mem_ctrls1.dram.writeRowHitRate          67.86                       # Row buffer hit rate for writes
system.mem_ctrls1.dram.bytesPerActivate::samples         5268                       # Bytes accessed per row activation
system.mem_ctrls1.dram.bytesPerActivate::mean   300.233865                       # Bytes accessed per row activation
system.mem_ctrls1.dram.bytesPerActivate::gmean   193.322827                       # Bytes accessed per row activation
system.mem_ctrls1.dram.bytesPerActivate::stdev   311.492306                       # Bytes accessed per row activation
system.mem_ctrls1.dram.bytesPerActivate::0-127         1085     20.60%     20.60% # Bytes accessed per row activation
system.mem_ctrls1.dram.bytesPerActivate::128-255         2204     41.84%     62.43% # Bytes accessed per row activation
system.mem_ctrls1.dram.bytesPerActivate::256-383          590     11.20%     73.63% # Bytes accessed per row activation
system.mem_ctrls1.dram.bytesPerActivate::384-511          311      5.90%     79.54% # Bytes accessed per row activation
system.mem_ctrls1.dram.bytesPerActivate::512-639          188      3.57%     83.11% # Bytes accessed per row activation
system.mem_ctrls1.dram.bytesPerActivate::640-767          134      2.54%     85.65% # Bytes accessed per row activation
system.mem_ctrls1.dram.bytesPerActivate::768-895           84      1.59%     87.24% # Bytes accessed per row activation
system.mem_ctrls1.dram.bytesPerActivate::896-1023           78      1.48%     88.72% # Bytes accessed per row activation
system.mem_ctrls1.dram.bytesPerActivate::1024-1151          594     11.28%    100.00% # Bytes accessed per row activation
system.mem_ctrls1.dram.bytesPerActivate::total         5268                       # Bytes accessed per row activation
system.mem_ctrls1.dram.bytesRead              1574528                       # Total number of bytes read from DRAM
system.mem_ctrls1.dram.bytesWritten              8960                       # Total number of bytes written to DRAM
system.mem_ctrls1.dram.avgRdBW             396.096463                       # Average DRAM read bandwidth in MiBytes/s
system.mem_ctrls1.dram.avgWrBW               2.254024                       # Average DRAM write bandwidth in MiBytes/s
system.mem_ctrls1.dram.peakBW                19207.00                       # Theoretical peak bandwidth in MiByte/s
system.mem_ctrls1.dram.busUtil                   2.07                       # Data bus utilization in percentage
system.mem_ctrls1.dram.busUtilRead               2.06                       # Data bus utilization in percentage for reads
system.mem_ctrls1.dram.busUtilWrite              0.01                       # Data bus utilization in percentage for writes
system.mem_ctrls1.dram.pageHitRate              78.67                       # Row buffer hit rate, read and write combined
system.mem_ctrls1.dram.power_state.pwrStateResidencyTicks::UNDEFINED   3975112500                       # Cumulative time (in ticks) in various power states
system.mem_ctrls1.dram.rank0.actEnergy   9100518.336000                       # Energy for activate commands per rank (pJ)
system.mem_ctrls1.dram.rank0.preEnergy   12082437.091200                       # Energy for precharge commands per rank (pJ)
system.mem_ctrls1.dram.rank0.readEnergy  58122885.542400                       # Energy for read commands per rank (pJ)
system.mem_ctrls1.dram.rank0.writeEnergy 304438.176000                       # Energy for write commands per rank (pJ)
system.mem_ctrls1.dram.rank0.refreshEnergy 706542589.872003                       # Energy for refresh commands per rank (pJ)
system.mem_ctrls1.dram.rank0.actBackEnergy 2692650108.959997                       # Energy for active background per rank (pJ)
system.mem_ctrls1.dram.rank0.preBackEnergy 526024641.945599                       # Energy for precharge background per rank (pJ)
system.mem_ctrls1.dram.rank0.actPowerDownEnergy            0                       # Energy for active power-down per rank (pJ)
system.mem_ctrls1.dram.rank0.prePowerDownEnergy            0                       # Energy for precharge power-down per rank (pJ)
system.mem_ctrls1.dram.rank0.selfRefreshEnergy            0                       # Energy for self refresh per rank (pJ)
system.mem_ctrls1.dram.rank0.totalEnergy 4004827619.923197                       # Total energy per rank (pJ)
system.mem_ctrls1.dram.rank0.averagePower  1007.475290                       # Core power per rank (mW)
system.mem_ctrls1.dram.rank0.totalIdleTime            0                       # Total Idle time Per DRAM Rank
system.mem_ctrls1.dram.rank0.pwrStateTime::IDLE    791155807                       # Time in different power states
system.mem_ctrls1.dram.rank0.pwrStateTime::REF    178500000                       # Time in different power states
system.mem_ctrls1.dram.rank0.pwrStateTime::SREF            0                       # Time in different power states
system.mem_ctrls1.dram.rank0.pwrStateTime::PRE_PDN            0                       # Time in different power states
system.mem_ctrls1.dram.rank0.pwrStateTime::ACT   3005456693                       # Time in different power states
system.mem_ctrls1.dram.rank0.pwrStateTime::ACT_PDN            0                       # Time in different power states
system.mem_ctrls1.dram.rank1.actEnergy   7357135.968000                       # Energy for activate commands per rank (pJ)
system.mem_ctrls1.dram.rank1.preEnergy   9760486.243200                       # Energy for precharge commands per rank (pJ)
system.mem_ctrls1.dram.rank1.readEnergy  45360920.371200                       # Energy for read commands per rank (pJ)
system.mem_ctrls1.dram.rank1.writeEnergy 221751.264000                       # Energy for write commands per rank (pJ)
system.mem_ctrls1.dram.rank1.refreshEnergy 706542589.872003                       # Energy for refresh commands per rank (pJ)
system.mem_ctrls1.dram.rank1.actBackEnergy 2572253326.943992                       # Energy for active background per rank (pJ)
system.mem_ctrls1.dram.rank1.preBackEnergy 618532903.833600                       # Energy for precharge background per rank (pJ)
system.mem_ctrls1.dram.rank1.actPowerDownEnergy            0                       # Energy for active power-down per rank (pJ)
system.mem_ctrls1.dram.rank1.prePowerDownEnergy            0                       # Energy for precharge power-down per rank (pJ)
system.mem_ctrls1.dram.rank1.selfRefreshEnergy            0                       # Energy for self refresh per rank (pJ)
system.mem_ctrls1.dram.rank1.totalEnergy 3960029114.495996                       # Total energy per rank (pJ)
system.mem_ctrls1.dram.rank1.averagePower   996.205545                       # Core power per rank (mW)
system.mem_ctrls1.dram.rank1.totalIdleTime            0                       # Total Idle time Per DRAM Rank
system.mem_ctrls1.dram.rank1.pwrStateTime::IDLE    933289159                       # Time in different power states
system.mem_ctrls1.dram.rank1.pwrStateTime::REF    178500000                       # Time in different power states
system.mem_ctrls1.dram.rank1.pwrStateTime::SREF            0                       # Time in different power states
system.mem_ctrls1.dram.rank1.pwrStateTime::PRE_PDN            0                       # Time in different power states
system.mem_ctrls1.dram.rank1.pwrStateTime::ACT   2863323341                       # Time in different power states
system.mem_ctrls1.dram.rank1.pwrStateTime::ACT_PDN            0                       # Time in different power states
system.mem_ctrls1.power_state.pwrStateResidencyTicks::UNDEFINED   3975112500                       # Cumulative time (in ticks) in various power states
system.membus.trans_dist::ReadResp              39196                       # Transaction distribution
system.membus.trans_dist::WritebackDirty          333                       # Transaction distribution
system.membus.trans_dist::CleanEvict              935                       # Transaction distribution
system.membus.trans_dist::ReadExReq             10101                       # Transaction distribution
system.membus.trans_dist::ReadExResp            10101                       # Transaction distribution
system.membus.trans_dist::ReadSharedReq         39196                       # Transaction distribution
system.membus.pkt_count_system.l2.mem_side_port::system.mem_ctrls0.port        49948                       # Packet count per connected requestor and responder (bytes)
system.membus.pkt_count_system.l2.mem_side_port::system.mem_ctrls1.port        49914                       # Packet count per connected requestor and responder (bytes)
system.membus.pkt_count_system.l2.mem_side_port::total        99862                       # Packet count per connected requestor and responder (bytes)
system.membus.pkt_count::total                  99862                       # Packet count per connected requestor and responder (bytes)
system.membus.pkt_size_system.l2.mem_side_port::system.mem_ctrls0.port      1587328                       # Cumulative packet size per connected requestor and responder (bytes)
system.membus.pkt_size_system.l2.mem_side_port::system.mem_ctrls1.port      1588992                       # Cumulative packet size per connected requestor and responder (bytes)
system.membus.pkt_size_system.l2.mem_side_port::total      3176320                       # Cumulative packet size per connected requestor and responder (bytes)
system.membus.pkt_size::total                 3176320                       # Cumulative packet size per connected requestor and responder (bytes)
system.membus.snoops                                0                       # Total snoops (count)
system.membus.snoopTraffic                          0                       # Total snoop traffic (bytes)
system.membus.snoop_fanout::samples             49297                       # Request fanout histogram
system.membus.snoop_fanout::mean                    0                       # Request fanout histogram
system.membus.snoop_fanout::stdev                   0                       # Request fanout histogram
system.membus.snoop_fanout::underflows              0      0.00%      0.00% # Request fanout histogram
system.membus.snoop_fanout::0                   49297    100.00%    100.00% # Request fanout histogram
system.membus.snoop_fanout::1                       0      0.00%    100.00% # Request fanout histogram
system.membus.snoop_fanout::overflows               0      0.00%    100.00% # Request fanout histogram
system.membus.snoop_fanout::min_value               0                       # Request fanout histogram
system.membus.snoop_fanout::max_value               0                       # Request fanout histogram
system.membus.snoop_fanout::total               49297                       # Request fanout histogram
system.membus.power_state.pwrStateResidencyTicks::UNDEFINED   3975112500                       # Cumulative time (in ticks) in various power states
system.membus.reqLayer4.occupancy            31867399                       # Layer occupancy (ticks)
system.membus.reqLayer4.utilization               0.8                       # Layer utilization (%)
system.membus.reqLayer5.occupancy            32078904                       # Layer occupancy (ticks)
system.membus.reqLayer5.utilization               0.8                       # Layer utilization (%)
system.membus.respLayer1.occupancy          261726728                       # Layer occupancy (ticks)
system.membus.respLayer1.utilization              6.6                       # Layer utilization (%)
system.tol2bus.trans_dist::ReadResp            103287                       # Transaction distribution
system.tol2bus.trans_dist::WritebackDirty        45234                       # Transaction distribution
system.tol2bus.trans_dist::WritebackClean        76959                       # Transaction distribution
system.tol2bus.trans_dist::CleanEvict             962                       # Transaction distribution
system.tol2bus.trans_dist::HardPFReq              413                       # Transaction distribution
system.tol2bus.trans_dist::UpgradeReq               9                       # Transaction distribution
system.tol2bus.trans_dist::UpgradeResp              9                       # Transaction distribution
system.tol2bus.trans_dist::ReadExReq            19312                       # Transaction distribution
system.tol2bus.trans_dist::ReadExResp           19312                       # Transaction distribution
system.tol2bus.trans_dist::ReadCleanReq         22508                       # Transaction distribution
system.tol2bus.trans_dist::ReadSharedReq        80779                       # Transaction distribution
system.tol2bus.pkt_count_system.cpu.icache.mem_side_port::system.l2.cpu_side_port        66989                       # Packet count per connected requestor and responder (bytes)
system.tol2bus.pkt_count_system.cpu.dcache.mem_side_port::system.l2.cpu_side_port       300073                       # Packet count per connected requestor and responder (bytes)
system.tol2bus.pkt_count::total                367062                       # Packet count per connected requestor and responder (bytes)
system.tol2bus.pkt_size_system.cpu.icache.mem_side_port::system.l2.cpu_side_port      2846784                       # Cumulative packet size per connected requestor and responder (bytes)
system.tol2bus.pkt_size_system.cpu.dcache.mem_side_port::system.l2.cpu_side_port     12797696                       # Cumulative packet size per connected requestor and responder (bytes)
system.tol2bus.pkt_size::total               15644480                       # Cumulative packet size per connected requestor and responder (bytes)
system.tol2bus.snoops                            1722                       # Total snoops (count)
system.tol2bus.snoopTraffic                     22208                       # Total snoop traffic (bytes)
system.tol2bus.snoop_fanout::samples           124316                       # Request fanout histogram
system.tol2bus.snoop_fanout::mean            0.001295                       # Request fanout histogram
system.tol2bus.snoop_fanout::stdev           0.035964                       # Request fanout histogram
system.tol2bus.snoop_fanout::underflows             0      0.00%      0.00% # Request fanout histogram
system.tol2bus.snoop_fanout::0                 124155     99.87%     99.87% # Request fanout histogram
system.tol2bus.snoop_fanout::1                    161      0.13%    100.00% # Request fanout histogram
system.tol2bus.snoop_fanout::2                      0      0.00%    100.00% # Request fanout histogram
system.tol2bus.snoop_fanout::3                      0      0.00%    100.00% # Request fanout histogram
system.tol2bus.snoop_fanout::4                      0      0.00%    100.00% # Request fanout histogram
system.tol2bus.snoop_fanout::overflows              0      0.00%    100.00% # Request fanout histogram
system.tol2bus.snoop_fanout::min_value              0                       # Request fanout histogram
system.tol2bus.snoop_fanout::max_value              1                       # Request fanout histogram
system.tol2bus.snoop_fanout::total             124316                       # Request fanout histogram
system.tol2bus.power_state.pwrStateResidencyTicks::UNDEFINED   3975112500                       # Cumulative time (in ticks) in various power states
system.tol2bus.reqLayer0.occupancy          244094000                       # Layer occupancy (ticks)
system.tol2bus.reqLayer0.utilization              6.1                       # Layer utilization (%)
system.tol2bus.respLayer0.occupancy          33847329                       # Layer occupancy (ticks)
system.tol2bus.respLayer0.utilization             0.9                       # Layer utilization (%)
system.tol2bus.respLayer1.occupancy         150161459                       # Layer occupancy (ticks)
system.tol2bus.respLayer1.utilization             3.8                       # Layer utilization (%)
system.voltage_domain.voltage                       1                       # Voltage in Volts

---------- End Simulation Statistics   ----------
