
---------- Begin Simulation Statistics ----------
final_tick                               145217945500                       # Number of ticks from beginning of simulation (restored from checkpoints and never reset)
host_mem_usage                               68453440                       # Number of bytes of host memory used
host_seconds                                  1568.25                       # Real time elapsed on the host
host_tick_rate                               92598577                       # Simulator tick rate (ticks/s)
sim_freq                                 1000000000000                       # Frequency of simulated ticks
sim_seconds                                  0.145218                       # Number of seconds simulated
sim_ticks                                145217945500                       # Number of ticks simulated
system.cpu.cc_regfile_reads                 205772018                       # number of cc regfile reads
system.cpu.cc_regfile_writes                122799247                       # number of cc regfile writes
system.cpu.committedInsts::0                 99155525                       # Number of Instructions Simulated
system.cpu.committedInsts::1                100000000                       # Number of Instructions Simulated
system.cpu.committedInsts::total            199155525                       # Number of Instructions Simulated
system.cpu.committedOps::0                  199486889                       # Number of Ops (including micro ops) Simulated
system.cpu.committedOps::1                  201188492                       # Number of Ops (including micro ops) Simulated
system.cpu.committedOps::total              400675381                       # Number of Ops (including micro ops) Simulated
system.cpu.cpi::0                            2.929094                       # CPI: Cycles Per Instruction
system.cpu.cpi::1                            2.904359                       # CPI: Cycles Per Instruction
system.cpu.cpi_total                         1.458337                       # CPI: Total CPI of All Threads
system.cpu.fp_regfile_reads                   7400947                       # number of floating regfile reads
system.cpu.fp_regfile_writes                  3206296                       # number of floating regfile writes
system.cpu.idleCycles                         2098280                       # Total number of cycles that the CPU has spent unscheduled due to idling
system.cpu.iew.branchMispredicts              6885812                       # Number of branch mispredicts detected at execute
system.cpu.iew.exec_branches::0              24153938                       # Number of branches executed
system.cpu.iew.exec_branches::1              24548035                       # Number of branches executed
system.cpu.iew.exec_branches::total          48701973                       # Number of branches executed
system.cpu.iew.exec_nop::0                          0                       # number of nop insts executed
system.cpu.iew.exec_nop::1                          0                       # number of nop insts executed
system.cpu.iew.exec_nop::total                      0                       # number of nop insts executed
system.cpu.iew.exec_rate                     1.718846                       # Inst execution rate
system.cpu.iew.exec_refs::0                  53417294                       # number of memory reference insts executed
system.cpu.iew.exec_refs::1                  54549429                       # number of memory reference insts executed
system.cpu.iew.exec_refs::total             107966723                       # number of memory reference insts executed
system.cpu.iew.exec_stores::0                19715502                       # Number of stores executed
system.cpu.iew.exec_stores::1                20239707                       # Number of stores executed
system.cpu.iew.exec_stores::total            39955209                       # Number of stores executed
system.cpu.iew.exec_swp::0                          0                       # number of swp insts executed
system.cpu.iew.exec_swp::1                          0                       # number of swp insts executed
system.cpu.iew.exec_swp::total                      0                       # number of swp insts executed
system.cpu.iew.iewBlockCycles                24885980                       # Number of cycles IEW is blocking
system.cpu.iew.iewDispLoadInsts              77875919                       # Number of dispatched load instructions
system.cpu.iew.iewDispNonSpecInsts               7760                       # Number of dispatched non-speculative instructions
system.cpu.iew.iewDispSquashedInsts                 0                       # Number of squashed instructions skipped by dispatch
system.cpu.iew.iewDispStoreInsts             44576211                       # Number of dispatched store instructions
system.cpu.iew.iewDispatchedInsts           561129446                       # Number of instructions dispatched to IQ
system.cpu.iew.iewExecLoadInsts::0           33701792                       # Number of load instructions executed
system.cpu.iew.iewExecLoadInsts::1           34309722                       # Number of load instructions executed
system.cpu.iew.iewExecLoadInsts::total       68011514                       # Number of load instructions executed
system.cpu.iew.iewExecSquashedInsts          10710446                       # Number of squashed instructions skipped in execute
system.cpu.iew.iewExecutedInsts             499214635                       # Number of executed instructions
system.cpu.iew.iewIQFullEvents                 159663                       # Number of times the IQ has become full, causing a stall
system.cpu.iew.iewIdleCycles                        0                       # Number of cycles IEW is idle
system.cpu.iew.iewLSQFullEvents                343478                       # Number of times the LSQ has become full, causing a stall
system.cpu.iew.iewSquashCycles                6450796                       # Number of cycles IEW is squashing
system.cpu.iew.iewUnblockCycles                591506                       # Number of cycles IEW is unblocking
system.cpu.iew.memOrderViolationEvents          31023                       # Number of memory order violations
system.cpu.iew.predictedNotTakenIncorrect      6320391                       # Number of branches that were predicted not taken incorrectly
system.cpu.iew.predictedTakenIncorrect         565421                       # Number of branches that were predicted taken incorrectly
system.cpu.iew.wb_consumers::0              261952763                       # num instructions consuming a value
system.cpu.iew.wb_consumers::1              268212103                       # num instructions consuming a value
system.cpu.iew.wb_consumers::total          530164866                       # num instructions consuming a value
system.cpu.iew.wb_count::0                  245747592                       # cumulative count of insts written-back
system.cpu.iew.wb_count::1                  250703000                       # cumulative count of insts written-back
system.cpu.iew.wb_count::total              496450592                       # cumulative count of insts written-back
system.cpu.iew.wb_fanout::0                  0.641123                       # average fanout of values written-back
system.cpu.iew.wb_fanout::1                  0.639498                       # average fanout of values written-back
system.cpu.iew.wb_fanout::total              0.640301                       # average fanout of values written-back
system.cpu.iew.wb_producers::0              167943971                       # num instructions producing a value
system.cpu.iew.wb_producers::1              171521194                       # num instructions producing a value
system.cpu.iew.wb_producers::total          339465165                       # num instructions producing a value
system.cpu.iew.wb_rate::0                    0.846134                       # insts written-back per cycle
system.cpu.iew.wb_rate::1                    0.863196                       # insts written-back per cycle
system.cpu.iew.wb_rate::total                1.709329                       # insts written-back per cycle
system.cpu.iew.wb_sent::0                   245823950                       # cumulative count of insts sent to commit
system.cpu.iew.wb_sent::1                   250787052                       # cumulative count of insts sent to commit
system.cpu.iew.wb_sent::total               496611002                       # cumulative count of insts sent to commit
system.cpu.int_regfile_reads                771134259                       # number of integer regfile reads
system.cpu.int_regfile_writes               399459271                       # number of integer regfile writes
system.cpu.ipc::0                            0.341402                       # IPC: Instructions Per Cycle
system.cpu.ipc::1                            0.344310                       # IPC: Instructions Per Cycle
system.cpu.ipc_total                         0.685713                       # IPC: Total IPC of All Threads
system.cpu.iq.FU_type_0::No_OpClass           3285086      1.28%      1.28% # Type of FU issued
system.cpu.iq.FU_type_0::IntAlu             192789125     75.26%     76.55% # Type of FU issued
system.cpu.iq.FU_type_0::IntMult               284633      0.11%     76.66% # Type of FU issued
system.cpu.iq.FU_type_0::IntDiv                144175      0.06%     76.71% # Type of FU issued
system.cpu.iq.FU_type_0::FloatAdd              134516      0.05%     76.77% # Type of FU issued
system.cpu.iq.FU_type_0::FloatCmp                   0      0.00%     76.77% # Type of FU issued
system.cpu.iq.FU_type_0::FloatCvt                  96      0.00%     76.77% # Type of FU issued
system.cpu.iq.FU_type_0::FloatMult                  0      0.00%     76.77% # Type of FU issued
system.cpu.iq.FU_type_0::FloatMultAcc               0      0.00%     76.77% # Type of FU issued
system.cpu.iq.FU_type_0::FloatDiv                   0      0.00%     76.77% # Type of FU issued
system.cpu.iq.FU_type_0::FloatMisc                  0      0.00%     76.77% # Type of FU issued
system.cpu.iq.FU_type_0::FloatSqrt                  0      0.00%     76.77% # Type of FU issued
system.cpu.iq.FU_type_0::SimdAdd                25045      0.01%     76.78% # Type of FU issued
system.cpu.iq.FU_type_0::SimdAddAcc                 0      0.00%     76.78% # Type of FU issued
system.cpu.iq.FU_type_0::SimdAlu               408538      0.16%     76.93% # Type of FU issued
system.cpu.iq.FU_type_0::SimdCmp                  131      0.00%     76.93% # Type of FU issued
system.cpu.iq.FU_type_0::SimdCvt               130016      0.05%     76.99% # Type of FU issued
system.cpu.iq.FU_type_0::SimdMisc              372537      0.15%     77.13% # Type of FU issued
system.cpu.iq.FU_type_0::SimdMult                   0      0.00%     77.13% # Type of FU issued
system.cpu.iq.FU_type_0::SimdMultAcc                0      0.00%     77.13% # Type of FU issued
system.cpu.iq.FU_type_0::SimdShift              11164      0.00%     77.14% # Type of FU issued
system.cpu.iq.FU_type_0::SimdShiftAcc               0      0.00%     77.14% # Type of FU issued
system.cpu.iq.FU_type_0::SimdDiv                    0      0.00%     77.14% # Type of FU issued
system.cpu.iq.FU_type_0::SimdSqrt                   0      0.00%     77.14% # Type of FU issued
system.cpu.iq.FU_type_0::SimdFloatAdd               8      0.00%     77.14% # Type of FU issued
system.cpu.iq.FU_type_0::SimdFloatAlu               0      0.00%     77.14% # Type of FU issued
system.cpu.iq.FU_type_0::SimdFloatCmp               3      0.00%     77.14% # Type of FU issued
system.cpu.iq.FU_type_0::SimdFloatCvt             100      0.00%     77.14% # Type of FU issued
system.cpu.iq.FU_type_0::SimdFloatDiv               1      0.00%     77.14% # Type of FU issued
system.cpu.iq.FU_type_0::SimdFloatMisc              0      0.00%     77.14% # Type of FU issued
system.cpu.iq.FU_type_0::SimdFloatMult             48      0.00%     77.14% # Type of FU issued
system.cpu.iq.FU_type_0::SimdFloatMultAcc            0      0.00%     77.14% # Type of FU issued
system.cpu.iq.FU_type_0::SimdFloatSqrt              0      0.00%     77.14% # Type of FU issued
system.cpu.iq.FU_type_0::SimdReduceAdd              0      0.00%     77.14% # Type of FU issued
system.cpu.iq.FU_type_0::SimdReduceAlu              0      0.00%     77.14% # Type of FU issued
system.cpu.iq.FU_type_0::SimdReduceCmp              0      0.00%     77.14% # Type of FU issued
system.cpu.iq.FU_type_0::SimdFloatReduceAdd            0      0.00%     77.14% # Type of FU issued
system.cpu.iq.FU_type_0::SimdFloatReduceCmp            0      0.00%     77.14% # Type of FU issued
system.cpu.iq.FU_type_0::SimdAes                    0      0.00%     77.14% # Type of FU issued
system.cpu.iq.FU_type_0::SimdAesMix                 0      0.00%     77.14% # Type of FU issued
system.cpu.iq.FU_type_0::SimdSha1Hash               0      0.00%     77.14% # Type of FU issued
system.cpu.iq.FU_type_0::SimdSha1Hash2              0      0.00%     77.14% # Type of FU issued
system.cpu.iq.FU_type_0::SimdSha256Hash             0      0.00%     77.14% # Type of FU issued
system.cpu.iq.FU_type_0::SimdSha256Hash2            0      0.00%     77.14% # Type of FU issued
system.cpu.iq.FU_type_0::SimdShaSigma2              0      0.00%     77.14% # Type of FU issued
system.cpu.iq.FU_type_0::SimdShaSigma3              0      0.00%     77.14% # Type of FU issued
system.cpu.iq.FU_type_0::SimdPredAlu                0      0.00%     77.14% # Type of FU issued
system.cpu.iq.FU_type_0::MemRead             36996350     14.44%     91.58% # Type of FU issued
system.cpu.iq.FU_type_0::MemWrite            19167046      7.48%     99.06% # Type of FU issued
system.cpu.iq.FU_type_0::FloatMemRead          701515      0.27%     99.33% # Type of FU issued
system.cpu.iq.FU_type_0::FloatMemWrite        1704376      0.67%    100.00% # Type of FU issued
system.cpu.iq.FU_type_0::IprAccess                  0      0.00%    100.00% # Type of FU issued
system.cpu.iq.FU_type_0::InstPrefetch               0      0.00%    100.00% # Type of FU issued
system.cpu.iq.FU_type_0::total              256154509                       # Type of FU issued
system.cpu.iq.FU_type_1::No_OpClass           3478597      1.33%      1.33% # Type of FU issued
system.cpu.iq.FU_type_1::IntAlu             196403626     75.09%     76.42% # Type of FU issued
system.cpu.iq.FU_type_1::IntMult               288069      0.11%     76.53% # Type of FU issued
system.cpu.iq.FU_type_1::IntDiv                144685      0.06%     76.59% # Type of FU issued
system.cpu.iq.FU_type_1::FloatAdd              136085      0.05%     76.64% # Type of FU issued
system.cpu.iq.FU_type_1::FloatCmp                   0      0.00%     76.64% # Type of FU issued
system.cpu.iq.FU_type_1::FloatCvt                  96      0.00%     76.64% # Type of FU issued
system.cpu.iq.FU_type_1::FloatMult                  0      0.00%     76.64% # Type of FU issued
system.cpu.iq.FU_type_1::FloatMultAcc               0      0.00%     76.64% # Type of FU issued
system.cpu.iq.FU_type_1::FloatDiv                   0      0.00%     76.64% # Type of FU issued
system.cpu.iq.FU_type_1::FloatMisc                  0      0.00%     76.64% # Type of FU issued
system.cpu.iq.FU_type_1::FloatSqrt                  0      0.00%     76.64% # Type of FU issued
system.cpu.iq.FU_type_1::SimdAdd                25300      0.01%     76.65% # Type of FU issued
system.cpu.iq.FU_type_1::SimdAddAcc                 0      0.00%     76.65% # Type of FU issued
system.cpu.iq.FU_type_1::SimdAlu               412098      0.16%     76.81% # Type of FU issued
system.cpu.iq.FU_type_1::SimdCmp                  127      0.00%     76.81% # Type of FU issued
system.cpu.iq.FU_type_1::SimdCvt               130971      0.05%     76.86% # Type of FU issued
system.cpu.iq.FU_type_1::SimdMisc              378330      0.14%     77.00% # Type of FU issued
system.cpu.iq.FU_type_1::SimdMult                   0      0.00%     77.00% # Type of FU issued
system.cpu.iq.FU_type_1::SimdMultAcc                0      0.00%     77.00% # Type of FU issued
system.cpu.iq.FU_type_1::SimdShift              11112      0.00%     77.01% # Type of FU issued
system.cpu.iq.FU_type_1::SimdShiftAcc               0      0.00%     77.01% # Type of FU issued
system.cpu.iq.FU_type_1::SimdDiv                    0      0.00%     77.01% # Type of FU issued
system.cpu.iq.FU_type_1::SimdSqrt                   0      0.00%     77.01% # Type of FU issued
system.cpu.iq.FU_type_1::SimdFloatAdd               8      0.00%     77.01% # Type of FU issued
system.cpu.iq.FU_type_1::SimdFloatAlu               0      0.00%     77.01% # Type of FU issued
system.cpu.iq.FU_type_1::SimdFloatCmp               2      0.00%     77.01% # Type of FU issued
system.cpu.iq.FU_type_1::SimdFloatCvt             103      0.00%     77.01% # Type of FU issued
system.cpu.iq.FU_type_1::SimdFloatDiv               1      0.00%     77.01% # Type of FU issued
system.cpu.iq.FU_type_1::SimdFloatMisc              0      0.00%     77.01% # Type of FU issued
system.cpu.iq.FU_type_1::SimdFloatMult             48      0.00%     77.01% # Type of FU issued
system.cpu.iq.FU_type_1::SimdFloatMultAcc            0      0.00%     77.01% # Type of FU issued
system.cpu.iq.FU_type_1::SimdFloatSqrt              0      0.00%     77.01% # Type of FU issued
system.cpu.iq.FU_type_1::SimdReduceAdd              0      0.00%     77.01% # Type of FU issued
system.cpu.iq.FU_type_1::SimdReduceAlu              0      0.00%     77.01% # Type of FU issued
system.cpu.iq.FU_type_1::SimdReduceCmp              0      0.00%     77.01% # Type of FU issued
system.cpu.iq.FU_type_1::SimdFloatReduceAdd            0      0.00%     77.01% # Type of FU issued
system.cpu.iq.FU_type_1::SimdFloatReduceCmp            0      0.00%     77.01% # Type of FU issued
system.cpu.iq.FU_type_1::SimdAes                    0      0.00%     77.01% # Type of FU issued
system.cpu.iq.FU_type_1::SimdAesMix                 0      0.00%     77.01% # Type of FU issued
system.cpu.iq.FU_type_1::SimdSha1Hash               0      0.00%     77.01% # Type of FU issued
system.cpu.iq.FU_type_1::SimdSha1Hash2              0      0.00%     77.01% # Type of FU issued
system.cpu.iq.FU_type_1::SimdSha256Hash             0      0.00%     77.01% # Type of FU issued
system.cpu.iq.FU_type_1::SimdSha256Hash2            0      0.00%     77.01% # Type of FU issued
system.cpu.iq.FU_type_1::SimdShaSigma2              0      0.00%     77.01% # Type of FU issued
system.cpu.iq.FU_type_1::SimdShaSigma3              0      0.00%     77.01% # Type of FU issued
system.cpu.iq.FU_type_1::SimdPredAlu                0      0.00%     77.01% # Type of FU issued
system.cpu.iq.FU_type_1::MemRead             37997585     14.53%     91.54% # Type of FU issued
system.cpu.iq.FU_type_1::MemWrite            19683299      7.53%     99.06% # Type of FU issued
system.cpu.iq.FU_type_1::FloatMemRead          686097      0.26%     99.33% # Type of FU issued
system.cpu.iq.FU_type_1::FloatMemWrite        1765174      0.67%    100.00% # Type of FU issued
system.cpu.iq.FU_type_1::IprAccess                  0      0.00%    100.00% # Type of FU issued
system.cpu.iq.FU_type_1::InstPrefetch               0      0.00%    100.00% # Type of FU issued
system.cpu.iq.FU_type_1::total              261541413                       # Type of FU issued
system.cpu.iq.FU_type::total                517695922      0.00%      0.00% # Type of FU issued
system.cpu.iq.fp_alu_accesses                10359578                       # Number of floating point alu accesses
system.cpu.iq.fp_inst_queue_reads            17697083                       # Number of floating instruction queue reads
system.cpu.iq.fp_inst_queue_wakeup_accesses      6128921                       # Number of floating instruction queue wakeup accesses
system.cpu.iq.fp_inst_queue_writes            9333211                       # Number of floating instruction queue writes
system.cpu.iq.fu_busy_cnt::0                132019841                       # FU busy when requested
system.cpu.iq.fu_busy_cnt::1                135731205                       # FU busy when requested
system.cpu.iq.fu_busy_cnt::total            267751046                       # FU busy when requested
system.cpu.iq.fu_busy_rate::0                0.255014                       # FU busy rate (busy events/executed inst)
system.cpu.iq.fu_busy_rate::1                0.262183                       # FU busy rate (busy events/executed inst)
system.cpu.iq.fu_busy_rate::total            0.517198                       # FU busy rate (busy events/executed inst)
system.cpu.iq.fu_full::No_OpClass                   0      0.00%      0.00% # attempts to use FU when none available
system.cpu.iq.fu_full::IntAlu               150448504     56.19%     56.19% # attempts to use FU when none available
system.cpu.iq.fu_full::IntMult                  34337      0.01%     56.20% # attempts to use FU when none available
system.cpu.iq.fu_full::IntDiv                 1290856      0.48%     56.68% # attempts to use FU when none available
system.cpu.iq.fu_full::FloatAdd                247133      0.09%     56.78% # attempts to use FU when none available
system.cpu.iq.fu_full::FloatCmp                     0      0.00%     56.78% # attempts to use FU when none available
system.cpu.iq.fu_full::FloatCvt                   132      0.00%     56.78% # attempts to use FU when none available
system.cpu.iq.fu_full::FloatMult                    0      0.00%     56.78% # attempts to use FU when none available
system.cpu.iq.fu_full::FloatMultAcc                 0      0.00%     56.78% # attempts to use FU when none available
system.cpu.iq.fu_full::FloatDiv                     0      0.00%     56.78% # attempts to use FU when none available
system.cpu.iq.fu_full::FloatMisc                    0      0.00%     56.78% # attempts to use FU when none available
system.cpu.iq.fu_full::FloatSqrt                    0      0.00%     56.78% # attempts to use FU when none available
system.cpu.iq.fu_full::SimdAdd                  46052      0.02%     56.79% # attempts to use FU when none available
system.cpu.iq.fu_full::SimdAddAcc                   0      0.00%     56.79% # attempts to use FU when none available
system.cpu.iq.fu_full::SimdAlu                 555369      0.21%     57.00% # attempts to use FU when none available
system.cpu.iq.fu_full::SimdCmp                    172      0.00%     57.00% # attempts to use FU when none available
system.cpu.iq.fu_full::SimdCvt                 142436      0.05%     57.05% # attempts to use FU when none available
system.cpu.iq.fu_full::SimdMisc                565328      0.21%     57.27% # attempts to use FU when none available
system.cpu.iq.fu_full::SimdMult                     0      0.00%     57.27% # attempts to use FU when none available
system.cpu.iq.fu_full::SimdMultAcc                  0      0.00%     57.27% # attempts to use FU when none available
system.cpu.iq.fu_full::SimdShift                21900      0.01%     57.27% # attempts to use FU when none available
system.cpu.iq.fu_full::SimdShiftAcc                 0      0.00%     57.27% # attempts to use FU when none available
system.cpu.iq.fu_full::SimdDiv                      0      0.00%     57.27% # attempts to use FU when none available
system.cpu.iq.fu_full::SimdSqrt                     0      0.00%     57.27% # attempts to use FU when none available
system.cpu.iq.fu_full::SimdFloatAdd                12      0.00%     57.27% # attempts to use FU when none available
system.cpu.iq.fu_full::SimdFloatAlu                 0      0.00%     57.27% # attempts to use FU when none available
system.cpu.iq.fu_full::SimdFloatCmp                 6      0.00%     57.27% # attempts to use FU when none available
system.cpu.iq.fu_full::SimdFloatCvt               193      0.00%     57.27% # attempts to use FU when none available
system.cpu.iq.fu_full::SimdFloatDiv                 2      0.00%     57.27% # attempts to use FU when none available
system.cpu.iq.fu_full::SimdFloatMisc                0      0.00%     57.27% # attempts to use FU when none available
system.cpu.iq.fu_full::SimdFloatMult               80      0.00%     57.27% # attempts to use FU when none available
system.cpu.iq.fu_full::SimdFloatMultAcc             0      0.00%     57.27% # attempts to use FU when none available
system.cpu.iq.fu_full::SimdFloatSqrt                0      0.00%     57.27% # attempts to use FU when none available
system.cpu.iq.fu_full::SimdReduceAdd                0      0.00%     57.27% # attempts to use FU when none available
system.cpu.iq.fu_full::SimdReduceAlu                0      0.00%     57.27% # attempts to use FU when none available
system.cpu.iq.fu_full::SimdReduceCmp                0      0.00%     57.27% # attempts to use FU when none available
system.cpu.iq.fu_full::SimdFloatReduceAdd            0      0.00%     57.27% # attempts to use FU when none available
system.cpu.iq.fu_full::SimdFloatReduceCmp            0      0.00%     57.27% # attempts to use FU when none available
system.cpu.iq.fu_full::SimdAes                      0      0.00%     57.27% # attempts to use FU when none available
system.cpu.iq.fu_full::SimdAesMix                   0      0.00%     57.27% # attempts to use FU when none available
system.cpu.iq.fu_full::SimdSha1Hash                 0      0.00%     57.27% # attempts to use FU when none available
system.cpu.iq.fu_full::SimdSha1Hash2                0      0.00%     57.27% # attempts to use FU when none available
system.cpu.iq.fu_full::SimdSha256Hash               0      0.00%     57.27% # attempts to use FU when none available
system.cpu.iq.fu_full::SimdSha256Hash2              0      0.00%     57.27% # attempts to use FU when none available
system.cpu.iq.fu_full::SimdShaSigma2                0      0.00%     57.27% # attempts to use FU when none available
system.cpu.iq.fu_full::SimdShaSigma3                0      0.00%     57.27% # attempts to use FU when none available
system.cpu.iq.fu_full::SimdPredAlu                  0      0.00%     57.27% # attempts to use FU when none available
system.cpu.iq.fu_full::MemRead               73953656     27.62%     84.89% # attempts to use FU when none available
system.cpu.iq.fu_full::MemWrite              40444878     15.11%    100.00% # attempts to use FU when none available
system.cpu.iq.fu_full::FloatMemRead                 0      0.00%    100.00% # attempts to use FU when none available
system.cpu.iq.fu_full::FloatMemWrite                0      0.00%    100.00% # attempts to use FU when none available
system.cpu.iq.fu_full::IprAccess                    0      0.00%    100.00% # attempts to use FU when none available
system.cpu.iq.fu_full::InstPrefetch                 0      0.00%    100.00% # attempts to use FU when none available
system.cpu.iq.int_alu_accesses             1035891941                       # Number of integer alu accesses
system.cpu.iq.int_inst_queue_reads         1849063381                       # Number of integer instruction queue reads
system.cpu.iq.int_inst_queue_wakeup_accesses    490321671                       # Number of integer instruction queue wakeup accesses
system.cpu.iq.int_inst_queue_writes         712281316                       # Number of integer instruction queue writes
system.cpu.iq.iqInstsAdded                  561106782                       # Number of instructions added to the IQ (excludes non-spec)
system.cpu.iq.iqInstsIssued                 517695922                       # Number of instructions issued
system.cpu.iq.iqNonSpecInstsAdded               22664                       # Number of non-speculative instructions added to the IQ
system.cpu.iq.iqSquashedInstsExamined       160454065                       # Number of squashed instructions iterated over during squash; mainly for profiling
system.cpu.iq.iqSquashedInstsIssued           7711728                       # Number of squashed instructions issued
system.cpu.iq.iqSquashedNonSpecRemoved           9104                       # Number of squashed non-spec instructions that were removed
system.cpu.iq.iqSquashedOperandsExamined    199740039                       # Number of squashed operands that are examined and possibly removed from graph
system.cpu.iq.issued_per_cycle::samples     288337612                       # Number of insts issued each cycle
system.cpu.iq.issued_per_cycle::mean         1.795451                       # Number of insts issued each cycle
system.cpu.iq.issued_per_cycle::stdev        1.787998                       # Number of insts issued each cycle
system.cpu.iq.issued_per_cycle::underflows            0      0.00%      0.00% # Number of insts issued each cycle
system.cpu.iq.issued_per_cycle::0           101200026     35.10%     35.10% # Number of insts issued each cycle
system.cpu.iq.issued_per_cycle::1            54723688     18.98%     54.08% # Number of insts issued each cycle
system.cpu.iq.issued_per_cycle::2            33873124     11.75%     65.82% # Number of insts issued each cycle
system.cpu.iq.issued_per_cycle::3            31128674     10.80%     76.62% # Number of insts issued each cycle
system.cpu.iq.issued_per_cycle::4            40749867     14.13%     90.75% # Number of insts issued each cycle
system.cpu.iq.issued_per_cycle::5            21785041      7.56%     98.31% # Number of insts issued each cycle
system.cpu.iq.issued_per_cycle::6             4345070      1.51%     99.82% # Number of insts issued each cycle
system.cpu.iq.issued_per_cycle::7              412105      0.14%     99.96% # Number of insts issued each cycle
system.cpu.iq.issued_per_cycle::8              120017      0.04%    100.00% # Number of insts issued each cycle
system.cpu.iq.issued_per_cycle::overflows            0      0.00%    100.00% # Number of insts issued each cycle
system.cpu.iq.issued_per_cycle::min_value            0                       # Number of insts issued each cycle
system.cpu.iq.issued_per_cycle::max_value            8                       # Number of insts issued each cycle
system.cpu.iq.issued_per_cycle::total       288337612                       # Number of insts issued each cycle
system.cpu.iq.rate                           1.782479                       # Inst issue rate
system.cpu.iq.vec_alu_accesses                      0                       # Number of vector alu accesses
system.cpu.iq.vec_inst_queue_reads                  0                       # Number of vector instruction queue reads
system.cpu.iq.vec_inst_queue_wakeup_accesses            0                       # Number of vector instruction queue wakeup accesses
system.cpu.iq.vec_inst_queue_writes                 0                       # Number of vector instruction queue writes
system.cpu.memDep0.conflictingLoads            771820                       # Number of conflicting loads.
system.cpu.memDep0.conflictingStores           901156                       # Number of conflicting stores.
system.cpu.memDep0.insertedLoads             38471248                       # Number of loads inserted to the mem dependence unit.
system.cpu.memDep0.insertedStores            21943007                       # Number of stores inserted to the mem dependence unit.
system.cpu.memDep1.conflictingLoads            861271                       # Number of conflicting loads.
system.cpu.memDep1.conflictingStores          1054777                       # Number of conflicting stores.
system.cpu.memDep1.insertedLoads             39404671                       # Number of loads inserted to the mem dependence unit.
system.cpu.memDep1.insertedStores            22633204                       # Number of stores inserted to the mem dependence unit.
system.cpu.misc_regfile_reads               223647573                       # number of misc regfile reads
system.cpu.misc_regfile_writes                    108                       # number of misc regfile writes
system.cpu.numCycles                        290435892                       # number of cpu cycles simulated
system.cpu.numWorkItemsCompleted                    0                       # number of work items this cpu completed
system.cpu.numWorkItemsStarted                      0                       # number of work items this cpu started
system.cpu.timesIdled                          385843                       # Number of times that the entire CPU went into an idle state and unscheduled itself
system.cpu.workload0.numSyscalls                  112                       # Number of system calls
system.cpu.workload1.numSyscalls                  112                       # Number of system calls
system.membus.snoop_filter.hit_multi_requests            0                       # Number of requests hitting in the snoop filter with multiple (>1) holders of the requested data.
system.membus.snoop_filter.hit_multi_snoops            0                       # Number of snoops hitting in the snoop filter with multiple (>1) holders of the requested data.
system.membus.snoop_filter.hit_single_requests       235154                       # Number of requests hitting in the snoop filter with a single holder of the requested data.
system.membus.snoop_filter.hit_single_snoops            0                       # Number of snoops hitting in the snoop filter with a single holder of the requested data.
system.membus.snoop_filter.tot_requests        535840                       # Total number of requests made to the snoop filter.
system.membus.snoop_filter.tot_snoops               0                       # Total number of snoops made to the snoop filter.
system.tol2bus.snoop_filter.hit_multi_requests       117571                       # Number of requests hitting in the snoop filter with multiple (>1) holders of the requested data.
system.tol2bus.snoop_filter.hit_multi_snoops           10                       # Number of snoops hitting in the snoop filter with multiple (>1) holders of the requested data.
system.tol2bus.snoop_filter.hit_single_requests     17131747                       # Number of requests hitting in the snoop filter with a single holder of the requested data.
system.tol2bus.snoop_filter.hit_single_snoops         2759                       # Number of snoops hitting in the snoop filter with a single holder of the requested data.
system.tol2bus.snoop_filter.tot_requests     34264207                       # Total number of requests made to the snoop filter.
system.tol2bus.snoop_filter.tot_snoops           2769                       # Total number of snoops made to the snoop filter.
sim_insts                                   199155525                       # Number of instructions simulated
sim_ops                                     400675381                       # Number of ops (including micro ops) simulated
host_inst_rate                                 126992                       # Simulator instruction rate (inst/s)
host_op_rate                                   255491                       # Simulator op (including micro ops) rate (op/s)
system.clk_domain.clock                          1000                       # Clock period in ticks
system.cpu.branchPred.lookups                73658318                       # Number of BP lookups
system.cpu.branchPred.condPredicted          50474053                       # Number of conditional branches predicted
system.cpu.branchPred.condIncorrect          12199864                       # Number of conditional branches incorrect
system.cpu.branchPred.BTBLookups             35683191                       # Number of BTB lookups
system.cpu.branchPred.BTBHits                15627109                       # Number of BTB hits
system.cpu.branchPred.BTBHitPct             43.794035                       # BTB Hit Percentage
system.cpu.branchPred.RASUsed                 5913108                       # Number of times the RAS was used to get a target.
system.cpu.branchPred.RASIncorrect              83264                       # Number of incorrect RAS predictions.
system.cpu.branchPred.indirectLookups         2759583                       # Number of indirect predictor lookups.
system.cpu.branchPred.indirectHits            1296966                       # Number of indirect target hits.
system.cpu.branchPred.indirectMisses          1462617                       # Number of indirect misses.
system.cpu.branchPred.indirectMispredicted       550690                       # Number of mispredicted indirect branches.
system.cpu.branchPred.power_state.pwrStateResidencyTicks::UNDEFINED 145217945500                       # Cumulative time (in ticks) in various power states
system.cpu.commit.commitSquashedInsts       150150885                       # The number of squashed insts skipped by commit
system.cpu.commit.commitNonSpecStalls           13560                       # The number of times commit has been forced to stall to communicate backwards
system.cpu.commit.branchMispredicts           6418193                       # The number of times a branch was mispredicted
system.cpu.commit.numCommittedDist::samples    287612333                       # Number of insts commited each cycle
system.cpu.commit.numCommittedDist::mean     1.393109                       # Number of insts commited each cycle
system.cpu.commit.numCommittedDist::stdev     2.362031                       # Number of insts commited each cycle
system.cpu.commit.numCommittedDist::underflows            0      0.00%      0.00% # Number of insts commited each cycle
system.cpu.commit.numCommittedDist::0       179247560     62.32%     62.32% # Number of insts commited each cycle
system.cpu.commit.numCommittedDist::1        25509949      8.87%     71.19% # Number of insts commited each cycle
system.cpu.commit.numCommittedDist::2        17753403      6.17%     77.36% # Number of insts commited each cycle
system.cpu.commit.numCommittedDist::3        23237891      8.08%     85.44% # Number of insts commited each cycle
system.cpu.commit.numCommittedDist::4         9203291      3.20%     88.64% # Number of insts commited each cycle
system.cpu.commit.numCommittedDist::5         5494711      1.91%     90.55% # Number of insts commited each cycle
system.cpu.commit.numCommittedDist::6         4469734      1.55%     92.11% # Number of insts commited each cycle
system.cpu.commit.numCommittedDist::7         2726522      0.95%     93.06% # Number of insts commited each cycle
system.cpu.commit.numCommittedDist::8        19969272      6.94%    100.00% # Number of insts commited each cycle
system.cpu.commit.numCommittedDist::overflows            0      0.00%    100.00% # Number of insts commited each cycle
system.cpu.commit.numCommittedDist::min_value            0                       # Number of insts commited each cycle
system.cpu.commit.numCommittedDist::max_value            8                       # Number of insts commited each cycle
system.cpu.commit.numCommittedDist::total    287612333                       # Number of insts commited each cycle
system.cpu.commit.instsCommitted::0          99155525                       # Number of instructions committed
system.cpu.commit.instsCommitted::1         100000000                       # Number of instructions committed
system.cpu.commit.instsCommitted::total     199155525                       # Number of instructions committed
system.cpu.commit.opsCommitted::0           199486889                       # Number of ops (including micro ops) committed
system.cpu.commit.opsCommitted::1           201188492                       # Number of ops (including micro ops) committed
system.cpu.commit.opsCommitted::total       400675381                       # Number of ops (including micro ops) committed
system.cpu.commit.memRefs::0                 44183138                       # Number of memory references committed
system.cpu.commit.memRefs::1                 44575070                       # Number of memory references committed
system.cpu.commit.memRefs::total             88758208                       # Number of memory references committed
system.cpu.commit.loads::0                   27684432                       # Number of loads committed
system.cpu.commit.loads::1                   27928692                       # Number of loads committed
system.cpu.commit.loads::total               55613124                       # Number of loads committed
system.cpu.commit.amos::0                           0                       # Number of atomic instructions committed
system.cpu.commit.amos::1                           0                       # Number of atomic instructions committed
system.cpu.commit.amos::total                       0                       # Number of atomic instructions committed
system.cpu.commit.membars::0                     4444                       # Number of memory barriers committed
system.cpu.commit.membars::1                     4524                       # Number of memory barriers committed
system.cpu.commit.membars::total                 8968                       # Number of memory barriers committed
system.cpu.commit.branches::0                20653301                       # Number of branches committed
system.cpu.commit.branches::1                20827605                       # Number of branches committed
system.cpu.commit.branches::total            41480906                       # Number of branches committed
system.cpu.commit.vector::0                         0                       # Number of committed Vector instructions.
system.cpu.commit.vector::1                         0                       # Number of committed Vector instructions.
system.cpu.commit.vector::total                     0                       # Number of committed Vector instructions.
system.cpu.commit.floating::0                 2375842                       # Number of committed floating point instructions.
system.cpu.commit.floating::1                 2392471                       # Number of committed floating point instructions.
system.cpu.commit.floating::total             4768313                       # Number of committed floating point instructions.
system.cpu.commit.integer::0                196512969                       # Number of committed integer instructions.
system.cpu.commit.integer::1                198193105                       # Number of committed integer instructions.
system.cpu.commit.integer::total            394706074                       # Number of committed integer instructions.
system.cpu.commit.functionCalls::0            2014230                       # Number of function calls committed.
system.cpu.commit.functionCalls::1            2031968                       # Number of function calls committed.
system.cpu.commit.functionCalls::total        4046198                       # Number of function calls committed.
system.cpu.commit.committedInstType_0::No_OpClass      2113538      1.06%      1.06% # Class of committed instruction
system.cpu.commit.committedInstType_0::IntAlu    151833566     76.11%     77.17% # Class of committed instruction
system.cpu.commit.committedInstType_0::IntMult       264977      0.13%     77.30% # Class of committed instruction
system.cpu.commit.committedInstType_0::IntDiv       142300      0.07%     77.38% # Class of committed instruction
system.cpu.commit.committedInstType_0::FloatAdd       104235      0.05%     77.43% # Class of committed instruction
system.cpu.commit.committedInstType_0::FloatCmp            0      0.00%     77.43% # Class of committed instruction
system.cpu.commit.committedInstType_0::FloatCvt           96      0.00%     77.43% # Class of committed instruction
system.cpu.commit.committedInstType_0::FloatMult            0      0.00%     77.43% # Class of committed instruction
system.cpu.commit.committedInstType_0::FloatMultAcc            0      0.00%     77.43% # Class of committed instruction
system.cpu.commit.committedInstType_0::FloatDiv            0      0.00%     77.43% # Class of committed instruction
system.cpu.commit.committedInstType_0::FloatMisc            0      0.00%     77.43% # Class of committed instruction
system.cpu.commit.committedInstType_0::FloatSqrt            0      0.00%     77.43% # Class of committed instruction
system.cpu.commit.committedInstType_0::SimdAdd        21142      0.01%     77.44% # Class of committed instruction
system.cpu.commit.committedInstType_0::SimdAddAcc            0      0.00%     77.44% # Class of committed instruction
system.cpu.commit.committedInstType_0::SimdAlu       355601      0.18%     77.62% # Class of committed instruction
system.cpu.commit.committedInstType_0::SimdCmp           98      0.00%     77.62% # Class of committed instruction
system.cpu.commit.committedInstType_0::SimdCvt       110908      0.06%     77.67% # Class of committed instruction
system.cpu.commit.committedInstType_0::SimdMisc       347349      0.17%     77.85% # Class of committed instruction
system.cpu.commit.committedInstType_0::SimdMult            0      0.00%     77.85% # Class of committed instruction
system.cpu.commit.committedInstType_0::SimdMultAcc            0      0.00%     77.85% # Class of committed instruction
system.cpu.commit.committedInstType_0::SimdShift         9790      0.00%     77.85% # Class of committed instruction
system.cpu.commit.committedInstType_0::SimdShiftAcc            0      0.00%     77.85% # Class of committed instruction
system.cpu.commit.committedInstType_0::SimdDiv            0      0.00%     77.85% # Class of committed instruction
system.cpu.commit.committedInstType_0::SimdSqrt            0      0.00%     77.85% # Class of committed instruction
system.cpu.commit.committedInstType_0::SimdFloatAdd            5      0.00%     77.85% # Class of committed instruction
system.cpu.commit.committedInstType_0::SimdFloatAlu            0      0.00%     77.85% # Class of committed instruction
system.cpu.commit.committedInstType_0::SimdFloatCmp            2      0.00%     77.85% # Class of committed instruction
system.cpu.commit.committedInstType_0::SimdFloatCvt           95      0.00%     77.85% # Class of committed instruction
system.cpu.commit.committedInstType_0::SimdFloatDiv            1      0.00%     77.85% # Class of committed instruction
system.cpu.commit.committedInstType_0::SimdFloatMisc            0      0.00%     77.85% # Class of committed instruction
system.cpu.commit.committedInstType_0::SimdFloatMult           48      0.00%     77.85% # Class of committed instruction
system.cpu.commit.committedInstType_0::SimdFloatMultAcc            0      0.00%     77.85% # Class of committed instruction
system.cpu.commit.committedInstType_0::SimdFloatSqrt            0      0.00%     77.85% # Class of committed instruction
system.cpu.commit.committedInstType_0::SimdReduceAdd            0      0.00%     77.85% # Class of committed instruction
system.cpu.commit.committedInstType_0::SimdReduceAlu            0      0.00%     77.85% # Class of committed instruction
system.cpu.commit.committedInstType_0::SimdReduceCmp            0      0.00%     77.85% # Class of committed instruction
system.cpu.commit.committedInstType_0::SimdFloatReduceAdd            0      0.00%     77.85% # Class of committed instruction
system.cpu.commit.committedInstType_0::SimdFloatReduceCmp            0      0.00%     77.85% # Class of committed instruction
system.cpu.commit.committedInstType_0::SimdAes            0      0.00%     77.85% # Class of committed instruction
system.cpu.commit.committedInstType_0::SimdAesMix            0      0.00%     77.85% # Class of committed instruction
system.cpu.commit.committedInstType_0::SimdSha1Hash            0      0.00%     77.85% # Class of committed instruction
system.cpu.commit.committedInstType_0::SimdSha1Hash2            0      0.00%     77.85% # Class of committed instruction
system.cpu.commit.committedInstType_0::SimdSha256Hash            0      0.00%     77.85% # Class of committed instruction
system.cpu.commit.committedInstType_0::SimdSha256Hash2            0      0.00%     77.85% # Class of committed instruction
system.cpu.commit.committedInstType_0::SimdShaSigma2            0      0.00%     77.85% # Class of committed instruction
system.cpu.commit.committedInstType_0::SimdShaSigma3            0      0.00%     77.85% # Class of committed instruction
system.cpu.commit.committedInstType_0::SimdPredAlu            0      0.00%     77.85% # Class of committed instruction
system.cpu.commit.committedInstType_0::MemRead     27274739     13.67%     91.52% # Class of committed instruction
system.cpu.commit.committedInstType_0::MemWrite     15556298      7.80%     99.32% # Class of committed instruction
system.cpu.commit.committedInstType_0::FloatMemRead       409693      0.21%     99.53% # Class of committed instruction
system.cpu.commit.committedInstType_0::FloatMemWrite       942408      0.47%    100.00% # Class of committed instruction
system.cpu.commit.committedInstType_0::IprAccess            0      0.00%    100.00% # Class of committed instruction
system.cpu.commit.committedInstType_0::InstPrefetch            0      0.00%    100.00% # Class of committed instruction
system.cpu.commit.committedInstType_0::total    199486889                       # Class of committed instruction
system.cpu.commit.committedInstType_1::No_OpClass      2130038      1.06%      1.06% # Class of committed instruction
system.cpu.commit.committedInstType_1::IntAlu    153119465     76.11%     77.17% # Class of committed instruction
system.cpu.commit.committedInstType_1::IntMult       266857      0.13%     77.30% # Class of committed instruction
system.cpu.commit.committedInstType_1::IntDiv       142598      0.07%     77.37% # Class of committed instruction
system.cpu.commit.committedInstType_1::FloatAdd       105021      0.05%     77.42% # Class of committed instruction
system.cpu.commit.committedInstType_1::FloatCmp            0      0.00%     77.42% # Class of committed instruction
system.cpu.commit.committedInstType_1::FloatCvt           96      0.00%     77.42% # Class of committed instruction
system.cpu.commit.committedInstType_1::FloatMult            0      0.00%     77.42% # Class of committed instruction
system.cpu.commit.committedInstType_1::FloatMultAcc            0      0.00%     77.42% # Class of committed instruction
system.cpu.commit.committedInstType_1::FloatDiv            0      0.00%     77.42% # Class of committed instruction
system.cpu.commit.committedInstType_1::FloatMisc            0      0.00%     77.42% # Class of committed instruction
system.cpu.commit.committedInstType_1::FloatSqrt            0      0.00%     77.42% # Class of committed instruction
system.cpu.commit.committedInstType_1::SimdAdd        21166      0.01%     77.43% # Class of committed instruction
system.cpu.commit.committedInstType_1::SimdAddAcc            0      0.00%     77.43% # Class of committed instruction
system.cpu.commit.committedInstType_1::SimdAlu       357183      0.18%     77.61% # Class of committed instruction
system.cpu.commit.committedInstType_1::SimdCmp           98      0.00%     77.61% # Class of committed instruction
system.cpu.commit.committedInstType_1::SimdCvt       111092      0.06%     77.67% # Class of committed instruction
system.cpu.commit.committedInstType_1::SimdMisc       349867      0.17%     77.84% # Class of committed instruction
system.cpu.commit.committedInstType_1::SimdMult            0      0.00%     77.84% # Class of committed instruction
system.cpu.commit.committedInstType_1::SimdMultAcc            0      0.00%     77.84% # Class of committed instruction
system.cpu.commit.committedInstType_1::SimdShift         9790      0.00%     77.84% # Class of committed instruction
system.cpu.commit.committedInstType_1::SimdShiftAcc            0      0.00%     77.84% # Class of committed instruction
system.cpu.commit.committedInstType_1::SimdDiv            0      0.00%     77.84% # Class of committed instruction
system.cpu.commit.committedInstType_1::SimdSqrt            0      0.00%     77.84% # Class of committed instruction
system.cpu.commit.committedInstType_1::SimdFloatAdd            5      0.00%     77.84% # Class of committed instruction
system.cpu.commit.committedInstType_1::SimdFloatAlu            0      0.00%     77.84% # Class of committed instruction
system.cpu.commit.committedInstType_1::SimdFloatCmp            2      0.00%     77.84% # Class of committed instruction
system.cpu.commit.committedInstType_1::SimdFloatCvt           95      0.00%     77.84% # Class of committed instruction
system.cpu.commit.committedInstType_1::SimdFloatDiv            1      0.00%     77.84% # Class of committed instruction
system.cpu.commit.committedInstType_1::SimdFloatMisc            0      0.00%     77.84% # Class of committed instruction
system.cpu.commit.committedInstType_1::SimdFloatMult           48      0.00%     77.84% # Class of committed instruction
system.cpu.commit.committedInstType_1::SimdFloatMultAcc            0      0.00%     77.84% # Class of committed instruction
system.cpu.commit.committedInstType_1::SimdFloatSqrt            0      0.00%     77.84% # Class of committed instruction
system.cpu.commit.committedInstType_1::SimdReduceAdd            0      0.00%     77.84% # Class of committed instruction
system.cpu.commit.committedInstType_1::SimdReduceAlu            0      0.00%     77.84% # Class of committed instruction
system.cpu.commit.committedInstType_1::SimdReduceCmp            0      0.00%     77.84% # Class of committed instruction
system.cpu.commit.committedInstType_1::SimdFloatReduceAdd            0      0.00%     77.84% # Class of committed instruction
system.cpu.commit.committedInstType_1::SimdFloatReduceCmp            0      0.00%     77.84% # Class of committed instruction
system.cpu.commit.committedInstType_1::SimdAes            0      0.00%     77.84% # Class of committed instruction
system.cpu.commit.committedInstType_1::SimdAesMix            0      0.00%     77.84% # Class of committed instruction
system.cpu.commit.committedInstType_1::SimdSha1Hash            0      0.00%     77.84% # Class of committed instruction
system.cpu.commit.committedInstType_1::SimdSha1Hash2            0      0.00%     77.84% # Class of committed instruction
system.cpu.commit.committedInstType_1::SimdSha256Hash            0      0.00%     77.84% # Class of committed instruction
system.cpu.commit.committedInstType_1::SimdSha256Hash2            0      0.00%     77.84% # Class of committed instruction
system.cpu.commit.committedInstType_1::SimdShaSigma2            0      0.00%     77.84% # Class of committed instruction
system.cpu.commit.committedInstType_1::SimdShaSigma3            0      0.00%     77.84% # Class of committed instruction
system.cpu.commit.committedInstType_1::SimdPredAlu            0      0.00%     77.84% # Class of committed instruction
system.cpu.commit.committedInstType_1::MemRead     27516485     13.68%     91.52% # Class of committed instruction
system.cpu.commit.committedInstType_1::MemWrite     15695556      7.80%     99.32% # Class of committed instruction
system.cpu.commit.committedInstType_1::FloatMemRead       412207      0.20%     99.53% # Class of committed instruction
system.cpu.commit.committedInstType_1::FloatMemWrite       950822      0.47%    100.00% # Class of committed instruction
system.cpu.commit.committedInstType_1::IprAccess            0      0.00%    100.00% # Class of committed instruction
system.cpu.commit.committedInstType_1::InstPrefetch            0      0.00%    100.00% # Class of committed instruction
system.cpu.commit.committedInstType_1::total    201188492                       # Class of committed instruction
system.cpu.commit.committedInstType::total    400675381      0.00%      0.00% # Class of committed instruction
system.cpu.commit.commitEligibleSamples      19969272                       # number cycles where commit BW limit reached
system.cpu.dcache.demand_hits::.cpu.data     89704186                       # number of demand (read+write) hits
system.cpu.dcache.demand_hits::total         89704186                       # number of demand (read+write) hits
system.cpu.dcache.overall_hits::.cpu.data     89704186                       # number of overall hits
system.cpu.dcache.overall_hits::total        89704186                       # number of overall hits
system.cpu.dcache.demand_misses::.cpu.data      8119170                       # number of demand (read+write) misses
system.cpu.dcache.demand_misses::total        8119170                       # number of demand (read+write) misses
system.cpu.dcache.overall_misses::.cpu.data      8119170                       # number of overall misses
system.cpu.dcache.overall_misses::total       8119170                       # number of overall misses
system.cpu.dcache.demand_miss_latency::.cpu.data 111902533261                       # number of demand (read+write) miss cycles
system.cpu.dcache.demand_miss_latency::total 111902533261                       # number of demand (read+write) miss cycles
system.cpu.dcache.overall_miss_latency::.cpu.data 111902533261                       # number of overall miss cycles
system.cpu.dcache.overall_miss_latency::total 111902533261                       # number of overall miss cycles
system.cpu.dcache.demand_accesses::.cpu.data     97823356                       # number of demand (read+write) accesses
system.cpu.dcache.demand_accesses::total     97823356                       # number of demand (read+write) accesses
system.cpu.dcache.overall_accesses::.cpu.data     97823356                       # number of overall (read+write) accesses
system.cpu.dcache.overall_accesses::total     97823356                       # number of overall (read+write) accesses
system.cpu.dcache.demand_miss_rate::.cpu.data     0.082998                       # miss rate for demand accesses
system.cpu.dcache.demand_miss_rate::total     0.082998                       # miss rate for demand accesses
system.cpu.dcache.overall_miss_rate::.cpu.data     0.082998                       # miss rate for overall accesses
system.cpu.dcache.overall_miss_rate::total     0.082998                       # miss rate for overall accesses
system.cpu.dcache.demand_avg_miss_latency::.cpu.data 13782.508959                       # average overall miss latency
system.cpu.dcache.demand_avg_miss_latency::total 13782.508959                       # average overall miss latency
system.cpu.dcache.overall_avg_miss_latency::.cpu.data 13782.508959                       # average overall miss latency
system.cpu.dcache.overall_avg_miss_latency::total 13782.508959                       # average overall miss latency
system.cpu.dcache.blocked_cycles::no_mshrs           31                       # number of cycles access was blocked
system.cpu.dcache.blocked_cycles::no_targets      1496045                       # number of cycles access was blocked
system.cpu.dcache.blocked::no_mshrs                10                       # number of cycles access was blocked
system.cpu.dcache.blocked::no_targets           22072                       # number of cycles access was blocked
system.cpu.dcache.avg_blocked_cycles::no_mshrs     3.100000                       # average number of cycles each access was blocked
system.cpu.dcache.avg_blocked_cycles::no_targets    67.780219                       # average number of cycles each access was blocked
system.cpu.dcache.writebacks::.writebacks      5742218                       # number of writebacks
system.cpu.dcache.writebacks::total           5742218                       # number of writebacks
system.cpu.dcache.demand_mshr_hits::.cpu.data      2376625                       # number of demand (read+write) MSHR hits
system.cpu.dcache.demand_mshr_hits::total      2376625                       # number of demand (read+write) MSHR hits
system.cpu.dcache.overall_mshr_hits::.cpu.data      2376625                       # number of overall MSHR hits
system.cpu.dcache.overall_mshr_hits::total      2376625                       # number of overall MSHR hits
system.cpu.dcache.demand_mshr_misses::.cpu.data      5742545                       # number of demand (read+write) MSHR misses
system.cpu.dcache.demand_mshr_misses::total      5742545                       # number of demand (read+write) MSHR misses
system.cpu.dcache.overall_mshr_misses::.cpu.data      5742545                       # number of overall MSHR misses
system.cpu.dcache.overall_mshr_misses::total      5742545                       # number of overall MSHR misses
system.cpu.dcache.demand_mshr_miss_latency::.cpu.data  72678056266                       # number of demand (read+write) MSHR miss cycles
system.cpu.dcache.demand_mshr_miss_latency::total  72678056266                       # number of demand (read+write) MSHR miss cycles
system.cpu.dcache.overall_mshr_miss_latency::.cpu.data  72678056266                       # number of overall MSHR miss cycles
system.cpu.dcache.overall_mshr_miss_latency::total  72678056266                       # number of overall MSHR miss cycles
system.cpu.dcache.demand_mshr_miss_rate::.cpu.data     0.058703                       # mshr miss rate for demand accesses
system.cpu.dcache.demand_mshr_miss_rate::total     0.058703                       # mshr miss rate for demand accesses
system.cpu.dcache.overall_mshr_miss_rate::.cpu.data     0.058703                       # mshr miss rate for overall accesses
system.cpu.dcache.overall_mshr_miss_rate::total     0.058703                       # mshr miss rate for overall accesses
system.cpu.dcache.demand_avg_mshr_miss_latency::.cpu.data 12656.070830                       # average overall mshr miss latency
system.cpu.dcache.demand_avg_mshr_miss_latency::total 12656.070830                       # average overall mshr miss latency
system.cpu.dcache.overall_avg_mshr_miss_latency::.cpu.data 12656.070830                       # average overall mshr miss latency
system.cpu.dcache.overall_avg_mshr_miss_latency::total 12656.070830                       # average overall mshr miss latency
system.cpu.dcache.replacements                 200635                       # number of replacements
system.cpu.dcache.expired                     5541583                       # dead blocks evicted
system.cpu.dcache.ReadReq_hits::.cpu.data     57865742                       # number of ReadReq hits
system.cpu.dcache.ReadReq_hits::total        57865742                       # number of ReadReq hits
system.cpu.dcache.ReadReq_misses::.cpu.data      6811749                       # number of ReadReq misses
system.cpu.dcache.ReadReq_misses::total       6811749                       # number of ReadReq misses
system.cpu.dcache.ReadReq_miss_latency::.cpu.data  86007583000                       # number of ReadReq miss cycles
system.cpu.dcache.ReadReq_miss_latency::total  86007583000                       # number of ReadReq miss cycles
system.cpu.dcache.ReadReq_accesses::.cpu.data     64677491                       # number of ReadReq accesses(hits+misses)
system.cpu.dcache.ReadReq_accesses::total     64677491                       # number of ReadReq accesses(hits+misses)
system.cpu.dcache.ReadReq_miss_rate::.cpu.data     0.105319                       # miss rate for ReadReq accesses
system.cpu.dcache.ReadReq_miss_rate::total     0.105319                       # miss rate for ReadReq accesses
system.cpu.dcache.ReadReq_avg_miss_latency::.cpu.data 12626.358223                       # average ReadReq miss latency
system.cpu.dcache.ReadReq_avg_miss_latency::total 12626.358223                       # average ReadReq miss latency
system.cpu.dcache.ReadReq_mshr_hits::.cpu.data      2365304                       # number of ReadReq MSHR hits
system.cpu.dcache.ReadReq_mshr_hits::total      2365304                       # number of ReadReq MSHR hits
system.cpu.dcache.ReadReq_mshr_misses::.cpu.data      4446445                       # number of ReadReq MSHR misses
system.cpu.dcache.ReadReq_mshr_misses::total      4446445                       # number of ReadReq MSHR misses
system.cpu.dcache.ReadReq_mshr_miss_latency::.cpu.data  48223255500                       # number of ReadReq MSHR miss cycles
system.cpu.dcache.ReadReq_mshr_miss_latency::total  48223255500                       # number of ReadReq MSHR miss cycles
system.cpu.dcache.ReadReq_mshr_miss_rate::.cpu.data     0.068748                       # mshr miss rate for ReadReq accesses
system.cpu.dcache.ReadReq_mshr_miss_rate::total     0.068748                       # mshr miss rate for ReadReq accesses
system.cpu.dcache.ReadReq_avg_mshr_miss_latency::.cpu.data 10845.350724                       # average ReadReq mshr miss latency
system.cpu.dcache.ReadReq_avg_mshr_miss_latency::total 10845.350724                       # average ReadReq mshr miss latency
system.cpu.dcache.WriteReq_hits::.cpu.data     31838444                       # number of WriteReq hits
system.cpu.dcache.WriteReq_hits::total       31838444                       # number of WriteReq hits
system.cpu.dcache.WriteReq_misses::.cpu.data      1307421                       # number of WriteReq misses
system.cpu.dcache.WriteReq_misses::total      1307421                       # number of WriteReq misses
system.cpu.dcache.WriteReq_miss_latency::.cpu.data  25894950261                       # number of WriteReq miss cycles
system.cpu.dcache.WriteReq_miss_latency::total  25894950261                       # number of WriteReq miss cycles
system.cpu.dcache.WriteReq_accesses::.cpu.data     33145865                       # number of WriteReq accesses(hits+misses)
system.cpu.dcache.WriteReq_accesses::total     33145865                       # number of WriteReq accesses(hits+misses)
system.cpu.dcache.WriteReq_miss_rate::.cpu.data     0.039444                       # miss rate for WriteReq accesses
system.cpu.dcache.WriteReq_miss_rate::total     0.039444                       # miss rate for WriteReq accesses
system.cpu.dcache.WriteReq_avg_miss_latency::.cpu.data 19806.129977                       # average WriteReq miss latency
system.cpu.dcache.WriteReq_avg_miss_latency::total 19806.129977                       # average WriteReq miss latency
system.cpu.dcache.WriteReq_mshr_hits::.cpu.data        11321                       # number of WriteReq MSHR hits
system.cpu.dcache.WriteReq_mshr_hits::total        11321                       # number of WriteReq MSHR hits
system.cpu.dcache.WriteReq_mshr_misses::.cpu.data      1296100                       # number of WriteReq MSHR misses
system.cpu.dcache.WriteReq_mshr_misses::total      1296100                       # number of WriteReq MSHR misses
system.cpu.dcache.WriteReq_mshr_miss_latency::.cpu.data  24454800766                       # number of WriteReq MSHR miss cycles
system.cpu.dcache.WriteReq_mshr_miss_latency::total  24454800766                       # number of WriteReq MSHR miss cycles
system.cpu.dcache.WriteReq_mshr_miss_rate::.cpu.data     0.039103                       # mshr miss rate for WriteReq accesses
system.cpu.dcache.WriteReq_mshr_miss_rate::total     0.039103                       # mshr miss rate for WriteReq accesses
system.cpu.dcache.WriteReq_avg_mshr_miss_latency::.cpu.data 18867.989172                       # average WriteReq mshr miss latency
system.cpu.dcache.WriteReq_avg_mshr_miss_latency::total 18867.989172                       # average WriteReq mshr miss latency
system.cpu.dcache.power_state.pwrStateResidencyTicks::UNDEFINED 145217945500                       # Cumulative time (in ticks) in various power states
system.cpu.dcache.tags.tagsinuse           197.948371                       # Cycle average of tags in use
system.cpu.dcache.tags.total_refs            95446735                       # Total number of references to valid blocks.
system.cpu.dcache.tags.sampled_refs           5742388                       # Sample count of references to valid blocks.
system.cpu.dcache.tags.avg_refs             16.621436                       # Average number of references to valid blocks.
system.cpu.dcache.tags.warmup_cycle            191500                       # Cycle when the warmup percentage was hit.
system.cpu.dcache.tags.occ_blocks::.cpu.data   197.948371                       # Average occupied blocks per requestor
system.cpu.dcache.tags.occ_percent::.cpu.data     0.386618                       # Average percentage of cache occupancy
system.cpu.dcache.tags.occ_percent::total     0.386618                       # Average percentage of cache occupancy
system.cpu.dcache.tags.occ_task_id_blocks::1024          170                       # Occupied blocks per task id
system.cpu.dcache.tags.age_task_id_blocks_1024::0          161                       # Occupied blocks per task id
system.cpu.dcache.tags.age_task_id_blocks_1024::1            7                       # Occupied blocks per task id
system.cpu.dcache.tags.age_task_id_blocks_1024::2            2                       # Occupied blocks per task id
system.cpu.dcache.tags.occ_task_id_percent::1024     0.332031                       # Percentage of cache occupancy per task id
system.cpu.dcache.tags.tag_accesses         788329236                       # Number of tag accesses
system.cpu.dcache.tags.data_accesses        788329236                       # Number of data accesses
system.cpu.dcache.tags.power_state.pwrStateResidencyTicks::UNDEFINED 145217945500                       # Cumulative time (in ticks) in various power states
system.cpu.decode.idleCycles                290963135                       # Number of cycles decode is idle
system.cpu.decode.blockedCycles              82031148                       # Number of cycles decode is blocked
system.cpu.decode.runCycles                 184002659                       # Number of cycles decode is running
system.cpu.decode.unblockCycles              13227486                       # Number of cycles decode is unblocking
system.cpu.decode.squashCycles                6450796                       # Number of cycles decode is squashing
system.cpu.decode.branchResolved             18954045                       # Number of times decode resolved a  branch
system.cpu.decode.branchMispred               5876071                       # Number of times decode detected a branch misprediction
system.cpu.decode.decodedInsts              583253874                       # Number of instructions handled by decode
system.cpu.decode.squashedInsts              48395885                       # Number of squashed instructions handled by decode
system.cpu.dtb.rdAccesses                    68907400                       # TLB accesses on read requests
system.cpu.dtb.wrAccesses                    40191071                       # TLB accesses on write requests
system.cpu.dtb.rdMisses                       6407630                       # TLB misses on read requests
system.cpu.dtb.wrMisses                       1375717                       # TLB misses on write requests
system.cpu.dtb.walker.power_state.pwrStateResidencyTicks::UNDEFINED 145217945500                       # Cumulative time (in ticks) in various power states
system.cpu.dtb_walker_cache.blocked_cycles::no_mshrs            0                       # number of cycles access was blocked
system.cpu.dtb_walker_cache.blocked_cycles::no_targets            0                       # number of cycles access was blocked
system.cpu.dtb_walker_cache.blocked::no_mshrs            0                       # number of cycles access was blocked
system.cpu.dtb_walker_cache.blocked::no_targets            0                       # number of cycles access was blocked
system.cpu.dtb_walker_cache.avg_blocked_cycles::no_mshrs          nan                       # average number of cycles each access was blocked
system.cpu.dtb_walker_cache.avg_blocked_cycles::no_targets          nan                       # average number of cycles each access was blocked
system.cpu.dtb_walker_cache.replacements            0                       # number of replacements
system.cpu.dtb_walker_cache.expired                 0                       # dead blocks evicted
system.cpu.dtb_walker_cache.power_state.pwrStateResidencyTicks::UNDEFINED 145217945500                       # Cumulative time (in ticks) in various power states
system.cpu.dtb_walker_cache.tags.tagsinuse            0                       # Cycle average of tags in use
system.cpu.dtb_walker_cache.tags.total_refs            0                       # Total number of references to valid blocks.
system.cpu.dtb_walker_cache.tags.sampled_refs            0                       # Sample count of references to valid blocks.
system.cpu.dtb_walker_cache.tags.avg_refs          nan                       # Average number of references to valid blocks.
system.cpu.dtb_walker_cache.tags.warmup_cycle            0                       # Cycle when the warmup percentage was hit.
system.cpu.dtb_walker_cache.tags.tag_accesses            0                       # Number of tag accesses
system.cpu.dtb_walker_cache.tags.data_accesses            0                       # Number of data accesses
system.cpu.dtb_walker_cache.tags.power_state.pwrStateResidencyTicks::UNDEFINED 145217945500                       # Cumulative time (in ticks) in various power states
system.cpu.fetch.icacheStallCycles            9580009                       # Number of cycles fetch is stalled on an Icache miss
system.cpu.fetch.insts                      344607939                       # Number of instructions fetch has processed
system.cpu.fetch.branches                    73658318                       # Number of branches that fetch encountered
system.cpu.fetch.predictedBranches           22837183                       # Number of branches that fetch has predicted taken
system.cpu.fetch.cycles                     158249064                       # Number of cycles fetch has run and was not squashing or blocked
system.cpu.fetch.squashCycles                12235641                       # Number of cycles fetch has spent squashing
system.cpu.fetch.tlbCycles                    2220545                       # Number of cycles fetch has spent waiting for tlb
system.cpu.fetch.miscStallCycles                   78                       # Number of cycles fetch has spent waiting on interrupts,or bad addresses, or out of MSHRs
system.cpu.fetch.cacheLines                 108632581                       # Number of cache lines fetched
system.cpu.fetch.icacheSquashes               3860990                       # Number of outstanding Icache misses that were squashed
system.cpu.fetch.tlbSquashes                   962298                       # Number of outstanding ITLB misses that were squashed
system.cpu.fetch.SMTDist::samples           288337612                       # Number of Cycles each Thread Fetched
system.cpu.fetch.SMTDist::mean              -0.112276                       # Number of Cycles each Thread Fetched
system.cpu.fetch.SMTDist::stdev              0.834026                       # Number of Cycles each Thread Fetched
system.cpu.fetch.SMTDist::underflows                0      0.00%      0.00% # Number of Cycles each Thread Fetched
system.cpu.fetch.SMTDist::-1                118287916     41.02%     41.02% # Number of Cycles each Thread Fetched
system.cpu.fetch.SMTDist::0                  84135177     29.18%     70.20% # Number of Cycles each Thread Fetched
system.cpu.fetch.SMTDist::1                  85914519     29.80%    100.00% # Number of Cycles each Thread Fetched
system.cpu.fetch.SMTDist::2                         0      0.00%    100.00% # Number of Cycles each Thread Fetched
system.cpu.fetch.SMTDist::overflows                 0      0.00%    100.00% # Number of Cycles each Thread Fetched
system.cpu.fetch.SMTDist::min_value                -1                       # Number of Cycles each Thread Fetched
system.cpu.fetch.SMTDist::max_value                 1                       # Number of Cycles each Thread Fetched
system.cpu.fetch.SMTDist::total             288337612                       # Number of Cycles each Thread Fetched
system.cpu.fetch.nisnDist::samples          288337612                       # Number of instructions fetched each cycle (Total)
system.cpu.fetch.nisnDist::mean              2.387011                       # Number of instructions fetched each cycle (Total)
system.cpu.fetch.nisnDist::stdev             3.117877                       # Number of instructions fetched each cycle (Total)
system.cpu.fetch.nisnDist::underflows               0      0.00%      0.00% # Number of instructions fetched each cycle (Total)
system.cpu.fetch.nisnDist::0                160277220     55.59%     55.59% # Number of instructions fetched each cycle (Total)
system.cpu.fetch.nisnDist::1                 11748594      4.07%     59.66% # Number of instructions fetched each cycle (Total)
system.cpu.fetch.nisnDist::2                 10297286      3.57%     63.23% # Number of instructions fetched each cycle (Total)
system.cpu.fetch.nisnDist::3                 10922540      3.79%     67.02% # Number of instructions fetched each cycle (Total)
system.cpu.fetch.nisnDist::4                 13007136      4.51%     71.53% # Number of instructions fetched each cycle (Total)
system.cpu.fetch.nisnDist::5                 14633204      5.08%     76.61% # Number of instructions fetched each cycle (Total)
system.cpu.fetch.nisnDist::6                 14291739      4.96%     81.56% # Number of instructions fetched each cycle (Total)
system.cpu.fetch.nisnDist::7                 13069924      4.53%     86.10% # Number of instructions fetched each cycle (Total)
system.cpu.fetch.nisnDist::8                 40089969     13.90%    100.00% # Number of instructions fetched each cycle (Total)
system.cpu.fetch.nisnDist::overflows                0      0.00%    100.00% # Number of instructions fetched each cycle (Total)
system.cpu.fetch.nisnDist::min_value                0                       # Number of instructions fetched each cycle (Total)
system.cpu.fetch.nisnDist::max_value                8                       # Number of instructions fetched each cycle (Total)
system.cpu.fetch.nisnDist::total            288337612                       # Number of instructions fetched each cycle (Total)
system.cpu.fetch.branchRate                  0.253613                       # Number of branch fetches per cycle
system.cpu.fetch.rate                        1.186520                       # Number of inst fetches per cycle
system.cpu.icache.demand_hits::.cpu.inst     96719546                       # number of demand (read+write) hits
system.cpu.icache.demand_hits::total         96719546                       # number of demand (read+write) hits
system.cpu.icache.overall_hits::.cpu.inst     96719546                       # number of overall hits
system.cpu.icache.overall_hits::total        96719546                       # number of overall hits
system.cpu.icache.demand_misses::.cpu.inst     11913027                       # number of demand (read+write) misses
system.cpu.icache.demand_misses::total       11913027                       # number of demand (read+write) misses
system.cpu.icache.overall_misses::.cpu.inst     11913027                       # number of overall misses
system.cpu.icache.overall_misses::total      11913027                       # number of overall misses
system.cpu.icache.demand_miss_latency::.cpu.inst  99712737000                       # number of demand (read+write) miss cycles
system.cpu.icache.demand_miss_latency::total  99712737000                       # number of demand (read+write) miss cycles
system.cpu.icache.overall_miss_latency::.cpu.inst  99712737000                       # number of overall miss cycles
system.cpu.icache.overall_miss_latency::total  99712737000                       # number of overall miss cycles
[...]
system.mem_ctrls1.dram.perBankWrBursts::7         2270                       # Per bank write bursts
system.mem_ctrls1.dram.perBankWrBursts::8         2679                       # Per bank write bursts
system.mem_ctrls1.dram.perBankWrBursts::9         2888                       # Per bank write bursts
system.mem_ctrls1.dram.perBankWrBursts::10         2316                       # Per bank write bursts
system.mem_ctrls1.dram.perBankWrBursts::11         2470                       # Per bank write bursts
system.mem_ctrls1.dram.perBankWrBursts::12         2469                       # Per bank write bursts
system.mem_ctrls1.dram.perBankWrBursts::13         2192                       # Per bank write bursts
system.mem_ctrls1.dram.perBankWrBursts::14         2290                       # Per bank write bursts
system.mem_ctrls1.dram.perBankWrBursts::15         2182                       # Per bank write bursts
system.mem_ctrls1.dram.perBankWrBursts::16         2263                       # Per bank write bursts
system.mem_ctrls1.dram.perBankWrBursts::17         2301                       # Per bank write bursts
system.mem_ctrls1.dram.perBankWrBursts::18         2321                       # Per bank write bursts
system.mem_ctrls1.dram.perBankWrBursts::19         2241                       # Per bank write bursts
system.mem_ctrls1.dram.perBankWrBursts::20         2153                       # Per bank write bursts
system.mem_ctrls1.dram.perBankWrBursts::21         2015                       # Per bank write bursts
system.mem_ctrls1.dram.perBankWrBursts::22         2034                       # Per bank write bursts
system.mem_ctrls1.dram.perBankWrBursts::23         2082                       # Per bank write bursts
system.mem_ctrls1.dram.perBankWrBursts::24         2690                       # Per bank write bursts
system.mem_ctrls1.dram.perBankWrBursts::25         2712                       # Per bank write bursts
system.mem_ctrls1.dram.perBankWrBursts::26         2580                       # Per bank write bursts
system.mem_ctrls1.dram.perBankWrBursts::27         2647                       # Per bank write bursts
system.mem_ctrls1.dram.perBankWrBursts::28         2462                       # Per bank write bursts
system.mem_ctrls1.dram.perBankWrBursts::29         2403                       # Per bank write bursts
system.mem_ctrls1.dram.perBankWrBursts::30         2386                       # Per bank write bursts
system.mem_ctrls1.dram.perBankWrBursts::31         2479                       # Per bank write bursts
system.mem_ctrls1.dram.totQLat             2267454971                       # Total ticks spent queuing
system.mem_ctrls1.dram.totBusLat            496741224                       # Total ticks spent in databus transfers
system.mem_ctrls1.dram.totMemAccLat        4875197315                       # Total ticks spent from burst creation until serviced by the DRAM
system.mem_ctrls1.dram.avgQLat               15209.45                       # Average queueing delay per DRAM burst
system.mem_ctrls1.dram.avgBusLat              3332.00                       # Average bus latency per DRAM burst
system.mem_ctrls1.dram.avgMemAccLat          32701.45                       # Average memory access latency per DRAM burst
system.mem_ctrls1.dram.readRowHits              81011                       # Number of row buffer hits during reads
system.mem_ctrls1.dram.writeRowHits             25934                       # Number of row buffer hits during writes
system.mem_ctrls1.dram.readRowHitRate           54.34                       # Row buffer hit rate for reads
system.mem_ctrls1.dram.writeRowHitRate          32.98                       # Row buffer hit rate for writes
system.mem_ctrls1.dram.bytesPerActivate::samples       120776                       # Bytes accessed per row activation
system.mem_ctrls1.dram.bytesPerActivate::mean   120.670862                       # Bytes accessed per row activation
system.mem_ctrls1.dram.bytesPerActivate::gmean    93.348528                       # Bytes accessed per row activation
system.mem_ctrls1.dram.bytesPerActivate::stdev   139.283040                       # Bytes accessed per row activation
system.mem_ctrls1.dram.bytesPerActivate::0-127        76330     63.20%     63.20% # Bytes accessed per row activation
system.mem_ctrls1.dram.bytesPerActivate::128-255        33524     27.76%     90.96% # Bytes accessed per row activation
system.mem_ctrls1.dram.bytesPerActivate::256-383         5918      4.90%     95.86% # Bytes accessed per row activation
system.mem_ctrls1.dram.bytesPerActivate::384-511         1689      1.40%     97.26% # Bytes accessed per row activation
system.mem_ctrls1.dram.bytesPerActivate::512-639          703      0.58%     97.84% # Bytes accessed per row activation
system.mem_ctrls1.dram.bytesPerActivate::640-767          472      0.39%     98.23% # Bytes accessed per row activation
system.mem_ctrls1.dram.bytesPerActivate::768-895          423      0.35%     98.58% # Bytes accessed per row activation
system.mem_ctrls1.dram.bytesPerActivate::896-1023          306      0.25%     98.83% # Bytes accessed per row activation
system.mem_ctrls1.dram.bytesPerActivate::1024-1151         1411      1.17%    100.00% # Bytes accessed per row activation
system.mem_ctrls1.dram.bytesPerActivate::total       120776                       # Bytes accessed per row activation
system.mem_ctrls1.dram.bytesRead              9541248                       # Total number of bytes read from DRAM
system.mem_ctrls1.dram.bytesWritten           5032896                       # Total number of bytes written to DRAM
system.mem_ctrls1.dram.avgRdBW              65.702954                       # Average DRAM read bandwidth in MiBytes/s
system.mem_ctrls1.dram.avgWrBW              34.657535                       # Average DRAM write bandwidth in MiBytes/s
system.mem_ctrls1.dram.peakBW                19207.00                       # Theoretical peak bandwidth in MiByte/s
system.mem_ctrls1.dram.busUtil                   0.52                       # Data bus utilization in percentage
system.mem_ctrls1.dram.busUtilRead               0.34                       # Data bus utilization in percentage for reads
system.mem_ctrls1.dram.busUtilWrite              0.18                       # Data bus utilization in percentage for writes
system.mem_ctrls1.dram.pageHitRate              46.96                       # Row buffer hit rate, read and write combined
system.mem_ctrls1.dram.power_state.pwrStateResidencyTicks::UNDEFINED 145217945500                       # Cumulative time (in ticks) in various power states
system.mem_ctrls1.dram.rank0.actEnergy   201284254.080018                       # Energy for activate commands per rank (pJ)
system.mem_ctrls1.dram.rank0.preEnergy   267604835.231984                       # Energy for precharge commands per rank (pJ)
system.mem_ctrls1.dram.rank0.readEnergy  330587056.262345                       # Energy for read commands per rank (pJ)
system.mem_ctrls1.dram.rank0.writeEnergy 153609731.519999                       # Energy for write commands per rank (pJ)
system.mem_ctrls1.dram.rank0.refreshEnergy 25838678124.909332                       # Energy for refresh commands per rank (pJ)
system.mem_ctrls1.dram.rank0.actBackEnergy 64840142724.330948                       # Energy for active background per rank (pJ)
system.mem_ctrls1.dram.rank0.preBackEnergy 44977600672.433556                       # Energy for precharge background per rank (pJ)
system.mem_ctrls1.dram.rank0.actPowerDownEnergy            0                       # Energy for active power-down per rank (pJ)
system.mem_ctrls1.dram.rank0.prePowerDownEnergy            0                       # Energy for precharge power-down per rank (pJ)
system.mem_ctrls1.dram.rank0.selfRefreshEnergy            0                       # Energy for self refresh per rank (pJ)
system.mem_ctrls1.dram.rank0.totalEnergy 136609507398.770355                       # Total energy per rank (pJ)
system.mem_ctrls1.dram.rank0.averagePower   940.720563                       # Core power per rank (mW)
system.mem_ctrls1.dram.rank0.totalIdleTime            0                       # Total Idle time Per DRAM Rank
system.mem_ctrls1.dram.rank0.pwrStateTime::IDLE  68446699789                       # Time in different power states
system.mem_ctrls1.dram.rank0.pwrStateTime::REF   6527850000                       # Time in different power states
system.mem_ctrls1.dram.rank0.pwrStateTime::SREF            0                       # Time in different power states
system.mem_ctrls1.dram.rank0.pwrStateTime::PRE_PDN            0                       # Time in different power states
system.mem_ctrls1.dram.rank0.pwrStateTime::ACT  70243395711                       # Time in different power states
system.mem_ctrls1.dram.rank0.pwrStateTime::ACT_PDN            0                       # Time in different power states
system.mem_ctrls1.dram.rank1.actEnergy   175386137.472013                       # Energy for activate commands per rank (pJ)
system.mem_ctrls1.dram.rank1.preEnergy   233173621.228791                       # Energy for precharge commands per rank (pJ)
system.mem_ctrls1.dram.rank1.readEnergy  296499064.915150                       # Energy for read commands per rank (pJ)
system.mem_ctrls1.dram.rank1.writeEnergy 141954635.424000                       # Energy for write commands per rank (pJ)
system.mem_ctrls1.dram.rank1.refreshEnergy 25838678124.909332                       # Energy for refresh commands per rank (pJ)
system.mem_ctrls1.dram.rank1.actBackEnergy 62927958456.110435                       # Energy for active background per rank (pJ)
system.mem_ctrls1.dram.rank1.preBackEnergy 46446849601.687645                       # Energy for precharge background per rank (pJ)
system.mem_ctrls1.dram.rank1.actPowerDownEnergy            0                       # Energy for active power-down per rank (pJ)
system.mem_ctrls1.dram.rank1.prePowerDownEnergy            0                       # Energy for precharge power-down per rank (pJ)
system.mem_ctrls1.dram.rank1.selfRefreshEnergy            0                       # Energy for self refresh per rank (pJ)
system.mem_ctrls1.dram.rank1.totalEnergy 136060499641.749863                       # Total energy per rank (pJ)
system.mem_ctrls1.dram.rank1.averagePower   936.939985                       # Core power per rank (mW)
system.mem_ctrls1.dram.rank1.totalIdleTime            0                       # Total Idle time Per DRAM Rank
system.mem_ctrls1.dram.rank1.pwrStateTime::IDLE  70701164701                       # Time in different power states
system.mem_ctrls1.dram.rank1.pwrStateTime::REF   6527850000                       # Time in different power states
system.mem_ctrls1.dram.rank1.pwrStateTime::SREF            0                       # Time in different power states
system.mem_ctrls1.dram.rank1.pwrStateTime::PRE_PDN            0                       # Time in different power states
system.mem_ctrls1.dram.rank1.pwrStateTime::ACT  67988930799                       # Time in different power states
system.mem_ctrls1.dram.rank1.pwrStateTime::ACT_PDN            0                       # Time in different power states
system.mem_ctrls1.power_state.pwrStateResidencyTicks::UNDEFINED 145217945500                       # Cumulative time (in ticks) in various power states
system.membus.trans_dist::ReadResp             124474                       # Transaction distribution
system.membus.trans_dist::WritebackDirty       157813                       # Transaction distribution
system.membus.trans_dist::CleanEvict            77338                       # Transaction distribution
system.membus.trans_dist::UpgradeReq                1                       # Transaction distribution
system.membus.trans_dist::ReadExReq            176214                       # Transaction distribution
system.membus.trans_dist::ReadExResp           176214                       # Transaction distribution
system.membus.trans_dist::ReadSharedReq        124474                       # Transaction distribution
system.membus.pkt_count_system.l2.mem_side_port::system.mem_ctrls0.port       419785                       # Packet count per connected requestor and responder (bytes)
system.membus.pkt_count_system.l2.mem_side_port::system.mem_ctrls1.port       416743                       # Packet count per connected requestor and responder (bytes)
system.membus.pkt_count_system.l2.mem_side_port::total       836528                       # Packet count per connected requestor and responder (bytes)
system.membus.pkt_count::total                 836528                       # Packet count per connected requestor and responder (bytes)
system.membus.pkt_size_system.l2.mem_side_port::system.mem_ctrls0.port     14718080                       # Cumulative packet size per connected requestor and responder (bytes)
system.membus.pkt_size_system.l2.mem_side_port::system.mem_ctrls1.port     14625984                       # Cumulative packet size per connected requestor and responder (bytes)
system.membus.pkt_size_system.l2.mem_side_port::total     29344064                       # Cumulative packet size per connected requestor and responder (bytes)
system.membus.pkt_size::total                29344064                       # Cumulative packet size per connected requestor and responder (bytes)
system.membus.snoops                                0                       # Total snoops (count)
system.membus.snoopTraffic                          0                       # Total snoop traffic (bytes)
system.membus.snoop_fanout::samples            300689                       # Request fanout histogram
system.membus.snoop_fanout::mean                    0                       # Request fanout histogram
system.membus.snoop_fanout::stdev                   0                       # Request fanout histogram
system.membus.snoop_fanout::underflows              0      0.00%      0.00% # Request fanout histogram
system.membus.snoop_fanout::0                  300689    100.00%    100.00% # Request fanout histogram
system.membus.snoop_fanout::1                       0      0.00%    100.00% # Request fanout histogram
system.membus.snoop_fanout::overflows               0      0.00%    100.00% # Request fanout histogram
system.membus.snoop_fanout::min_value               0                       # Request fanout histogram
system.membus.snoop_fanout::max_value               0                       # Request fanout histogram
system.membus.snoop_fanout::total              300689                       # Request fanout histogram
system.membus.power_state.pwrStateResidencyTicks::UNDEFINED 145217945500                       # Cumulative time (in ticks) in various power states
system.membus.reqLayer4.occupancy           620674407                       # Layer occupancy (ticks)
system.membus.reqLayer4.utilization               0.4                       # Layer utilization (%)
system.membus.reqLayer5.occupancy           615718916                       # Layer occupancy (ticks)
system.membus.reqLayer5.utilization               0.4                       # Layer utilization (%)
system.membus.respLayer1.occupancy         1604087686                       # Layer occupancy (ticks)
system.membus.respLayer1.utilization              1.1                       # Layer utilization (%)
system.tol2bus.trans_dist::ReadResp          15834368                       # Transaction distribution
system.tol2bus.trans_dist::WritebackDirty      3628287                       # Transaction distribution
system.tol2bus.trans_dist::WritebackClean     13661097                       # Transaction distribution
system.tol2bus.trans_dist::CleanEvict           80048                       # Transaction distribution
system.tol2bus.trans_dist::HardPFReq             8538                       # Transaction distribution
system.tol2bus.trans_dist::UpgradeReq             156                       # Transaction distribution
system.tol2bus.trans_dist::UpgradeResp            156                       # Transaction distribution
system.tol2bus.trans_dist::ReadExReq          1298111                       # Transaction distribution
system.tol2bus.trans_dist::ReadExResp         1298111                       # Transaction distribution
system.tol2bus.trans_dist::ReadCleanReq      11390092                       # Transaction distribution
system.tol2bus.trans_dist::ReadSharedReq      4444277                       # Transaction distribution
system.tol2bus.pkt_count_system.cpu.icache.mem_side_port::system.l2.cpu_side_port     34168838                       # Packet count per connected requestor and responder (bytes)
system.tol2bus.pkt_count_system.cpu.dcache.mem_side_port::system.l2.cpu_side_port     17227306                       # Packet count per connected requestor and responder (bytes)
system.tol2bus.pkt_count::total              51396144                       # Packet count per connected requestor and responder (bytes)
system.tol2bus.pkt_size_system.cpu.icache.mem_side_port::system.l2.cpu_side_port   1457839744                       # Cumulative packet size per connected requestor and responder (bytes)
system.tol2bus.pkt_size_system.cpu.dcache.mem_side_port::system.l2.cpu_side_port    735014784                       # Cumulative packet size per connected requestor and responder (bytes)
system.tol2bus.pkt_size::total             2192854528                       # Cumulative packet size per connected requestor and responder (bytes)
system.tol2bus.snoops                          247097                       # Total snoops (count)
system.tol2bus.snoopTraffic                  10144704                       # Total snoop traffic (bytes)
system.tol2bus.snoop_fanout::samples         17379035                       # Request fanout histogram
system.tol2bus.snoop_fanout::mean            0.006926                       # Request fanout histogram
system.tol2bus.snoop_fanout::stdev           0.082939                       # Request fanout histogram
system.tol2bus.snoop_fanout::underflows             0      0.00%      0.00% # Request fanout histogram
system.tol2bus.snoop_fanout::0               17258684     99.31%     99.31% # Request fanout histogram
system.tol2bus.snoop_fanout::1                 120341      0.69%    100.00% # Request fanout histogram
system.tol2bus.snoop_fanout::2                     10      0.00%    100.00% # Request fanout histogram
system.tol2bus.snoop_fanout::3                      0      0.00%    100.00% # Request fanout histogram
system.tol2bus.snoop_fanout::4                      0      0.00%    100.00% # Request fanout histogram
system.tol2bus.snoop_fanout::overflows              0      0.00%    100.00% # Request fanout histogram
system.tol2bus.snoop_fanout::min_value              0                       # Request fanout histogram
system.tol2bus.snoop_fanout::max_value              2                       # Request fanout histogram
system.tol2bus.snoop_fanout::total           17379035                       # Request fanout histogram
system.tol2bus.power_state.pwrStateResidencyTicks::UNDEFINED 145217945500                       # Cumulative time (in ticks) in various power states
system.tol2bus.reqLayer0.occupancy        34263674500                       # Layer occupancy (ticks)
system.tol2bus.reqLayer0.utilization             23.6                       # Layer utilization (%)
system.tol2bus.respLayer0.occupancy       17113021119                       # Layer occupancy (ticks)
system.tol2bus.respLayer0.utilization            11.8                       # Layer utilization (%)
system.tol2bus.respLayer1.occupancy        8630606040                       # Layer occupancy (ticks)
system.tol2bus.respLayer1.utilization             5.9                       # Layer utilization (%)
system.voltage_domain.voltage                       1                       # Voltage in Volts

---------- End Simulation Statistics   ----------
